                                  MODFLOW-2005     
      U.S. GEOLOGICAL SURVEY MODULAR FINITE-DIFFERENCE GROUND-WATER FLOW MODEL
                            VERSION 1.11.00 8/8/2013

If you are attempting to run MODFLOW, you are making a big ***ERROR***. This is not MODFLOW. This program should only be used for importing existing models into ModelMuse.
 LIST FILE: SyntheticAquifer_NY.lst
                         UNIT   11
 OPENING:
           9 SyntheticAquifer_NY.cbc

 OPENING SyntheticAquifer_NY.cbc
 FILE TYPE:DATA(BINARY)   UNIT    9   STATUS:REPLACE
 FORMAT:BINARY                 ACCESS:SEQUENTIAL          
 OPENING:
          12 SyntheticAquifer_NY.dis

 OPENING SyntheticAquifer_NY.dis
 FILE TYPE:DIS   UNIT   12   STATUS:OLD    
 FORMAT:FORMATTED              ACCESS:SEQUENTIAL          
 OPENING:
          13 SyntheticAquifer_NY.bas

 OPENING SyntheticAquifer_NY.bas
 FILE TYPE:BAS6   UNIT   13   STATUS:OLD    
 FORMAT:FORMATTED              ACCESS:SEQUENTIAL          
 OPENING:
          39 SyntheticAquifer_NY.oc

 OPENING SyntheticAquifer_NY.oc
 FILE TYPE:OC   UNIT   39   STATUS:OLD    
 FORMAT:FORMATTED              ACCESS:SEQUENTIAL          
 OPENING:
          37 SyntheticAquifer_NY.fhd

 OPENING SyntheticAquifer_NY.fhd
 FILE TYPE:DATA   UNIT   37   STATUS:REPLACE
 FORMAT:FORMATTED              ACCESS:SEQUENTIAL          
 OPENING:
          38 SyntheticAquifer_NY.fdn

 OPENING SyntheticAquifer_NY.fdn
 FILE TYPE:DATA   UNIT   38   STATUS:REPLACE
 FORMAT:FORMATTED              ACCESS:SEQUENTIAL          
 OPENING:
         133 SyntheticAquifer_NY.nwt

 OPENING SyntheticAquifer_NY.nwt
 FILE TYPE:NWT   UNIT  133   STATUS:OLD    
 FORMAT:FORMATTED              ACCESS:SEQUENTIAL          
 OPENING:
         134 SyntheticAquifer_NY.upw

 OPENING SyntheticAquifer_NY.upw
 FILE TYPE:UPW   UNIT  134   STATUS:OLD    
 FORMAT:FORMATTED              ACCESS:SEQUENTIAL          
 OPENING:
          17 SyntheticAquifer_NY.chd

 OPENING SyntheticAquifer_NY.chd
 FILE TYPE:CHD   UNIT   17   STATUS:OLD    
 FORMAT:FORMATTED              ACCESS:SEQUENTIAL          
 OPENING:
          21 SyntheticAquifer_NY.riv

 OPENING SyntheticAquifer_NY.riv
 FILE TYPE:RIV   UNIT   21   STATUS:OLD    
 FORMAT:FORMATTED              ACCESS:SEQUENTIAL          
 OPENING:
          22 SyntheticAquifer_NY.drn

 OPENING SyntheticAquifer_NY.drn
 FILE TYPE:DRN   UNIT   22   STATUS:OLD    
 FORMAT:FORMATTED              ACCESS:SEQUENTIAL          
 OPENING:
          24 SyntheticAquifer_NY.rch

 OPENING SyntheticAquifer_NY.rch
 FILE TYPE:RCH   UNIT   24   STATUS:OLD    
 FORMAT:FORMATTED              ACCESS:SEQUENTIAL          

 BAS -- BASIC PACKAGE, VERSION 7, 5/2/2005 INPUT READ FROM UNIT   13

 DISCRETIZATION INPUT DATA READ FROM UNIT   12
 COMMENT:
                                                                                                                                # Discretization File created on 3/28/2023 by ModelMuse version 5.0.0.0.
 COMMENT:
                                                                                                                                                        # Upper left corner: (400442.000000001, 4800704)
 COMMENT:
                                                                                                                                                        # Lower left corner: (400442.000000001, 4758704)
 COMMENT:
                                                                                                                                                       # Upper right corner: (492942.000000001, 4800704)
 COMMENT:
                                                                                                                                                       # Lower right corner: (492942.000000001, 4758704)
 COMMENT:
                                                                                                                                                           # Grid angle (in degrees counterclockwise): 0
 DIS:
 NLAY, NROW, NCOL, NPER, ITMUNI, LENUNI:
           1          84         185          25           4           2
 LAYCBD(K):
           0
 VARIABLE 1D REAL ARRAY:
                     DELR
   500.0000       500.0000       500.0000       500.0000       500.0000    
   500.0000       500.0000       500.0000       500.0000       500.0000    
   500.0000       500.0000       500.0000       500.0000       500.0000    
   500.0000       500.0000       500.0000       500.0000       500.0000    
   500.0000       500.0000       500.0000       500.0000       500.0000    
   500.0000       500.0000       500.0000       500.0000       500.0000    
   500.0000       500.0000       500.0000       500.0000       500.0000    
   500.0000       500.0000       500.0000       500.0000       500.0000    
   500.0000       500.0000       500.0000       500.0000       500.0000    
   500.0000       500.0000       500.0000       500.0000       500.0000    
   500.0000       500.0000       500.0000       500.0000       500.0000    
   500.0000       500.0000       500.0000       500.0000       500.0000    
   500.0000       500.0000       500.0000       500.0000       500.0000    
   500.0000       500.0000       500.0000       500.0000       500.0000    
   500.0000       500.0000       500.0000       500.0000       500.0000    
   500.0000       500.0000       500.0000       500.0000       500.0000    
   500.0000       500.0000       500.0000       500.0000       500.0000    
   500.0000       500.0000       500.0000       500.0000       500.0000    
   500.0000       500.0000       500.0000       500.0000       500.0000    
   500.0000       500.0000       500.0000       500.0000       500.0000    
   500.0000       500.0000       500.0000       500.0000       500.0000    
   500.0000       500.0000       500.0000       500.0000       500.0000    
   500.0000       500.0000       500.0000       500.0000       500.0000    
   500.0000       500.0000       500.0000       500.0000       500.0000    
   500.0000       500.0000       500.0000       500.0000       500.0000    
   500.0000       500.0000       500.0000       500.0000       500.0000    
   500.0000       500.0000       500.0000       500.0000       500.0000    
   500.0000       500.0000       500.0000       500.0000       500.0000    
   500.0000       500.0000       500.0000       500.0000       500.0000    
   500.0000       500.0000       500.0000       500.0000       500.0000    
   500.0000       500.0000       500.0000       500.0000       500.0000    
   500.0000       500.0000       500.0000       500.0000       500.0000    
   500.0000       500.0000       500.0000       500.0000       500.0000    
   500.0000       500.0000       500.0000       500.0000       500.0000    
   500.0000       500.0000       500.0000       500.0000       500.0000    
   500.0000       500.0000       500.0000       500.0000       500.0000    
   500.0000       500.0000       500.0000       500.0000       500.0000    
 VARIABLE 1D REAL ARRAY:
                     DELC
   500.0000       500.0000       500.0000       500.0000       500.0000    
   500.0000       500.0000       500.0000       500.0000       500.0000    
   500.0000       500.0000       500.0000       500.0000       500.0000    
   500.0000       500.0000       500.0000       500.0000       500.0000    
   500.0000       500.0000       500.0000       500.0000       500.0000    
   500.0000       500.0000       500.0000       500.0000       500.0000    
   500.0000       500.0000       500.0000       500.0000       500.0000    
   500.0000       500.0000       500.0000       500.0000       500.0000    
   500.0000       500.0000       500.0000       500.0000       500.0000    
   500.0000       500.0000       500.0000       500.0000       500.0000    
   500.0000       500.0000       500.0000       500.0000       500.0000    
   500.0000       500.0000       500.0000       500.0000       500.0000    
   500.0000       500.0000       500.0000       500.0000       500.0000    
   500.0000       500.0000       500.0000       500.0000       500.0000    
   500.0000       500.0000       500.0000       500.0000       500.0000    
   500.0000       500.0000       500.0000       500.0000       500.0000    
   500.0000       500.0000       500.0000       500.0000    
 VARIABLE 2D REAL ARRAY:
 TOP ELEVATION OF LAYER 1
  0.0000000E+00  0.0000000E+00  0.0000000E+00  0.0000000E+00  0.0000000E+00
  0.0000000E+00  0.0000000E+00  0.0000000E+00  0.0000000E+00  0.0000000E+00
  0.0000000E+00  0.0000000E+00  0.0000000E+00  0.0000000E+00  0.0000000E+00
  0.0000000E+00  0.0000000E+00  0.0000000E+00  0.0000000E+00  0.0000000E+00
  0.0000000E+00  0.0000000E+00  0.0000000E+00  0.0000000E+00  0.0000000E+00
  0.0000000E+00  0.0000000E+00  0.0000000E+00  0.0000000E+00  0.0000000E+00
  0.0000000E+00  0.0000000E+00  0.0000000E+00  0.0000000E+00  0.0000000E+00
  0.0000000E+00  0.0000000E+00  0.0000000E+00  0.0000000E+00  0.0000000E+00
  0.0000000E+00  0.0000000E+00  0.0000000E+00  0.0000000E+00  0.0000000E+00
  0.0000000E+00  0.0000000E+00  0.0000000E+00  0.0000000E+00  0.0000000E+00
  0.0000000E+00  0.0000000E+00  0.0000000E+00  0.0000000E+00  0.0000000E+00
  0.0000000E+00  0.0000000E+00  0.0000000E+00  0.0000000E+00  0.0000000E+00
  0.0000000E+00  0.0000000E+00  0.0000000E+00  0.0000000E+00  0.0000000E+00
  0.0000000E+00  0.0000000E+00  0.0000000E+00  0.0000000E+00  0.0000000E+00
  0.0000000E+00  0.0000000E+00  0.0000000E+00  0.0000000E+00  0.0000000E+00
  0.0000000E+00  0.0000000E+00  0.0000000E+00  0.0000000E+00  0.0000000E+00
  0.0000000E+00  0.0000000E+00  0.0000000E+00  0.0000000E+00  0.0000000E+00
  0.0000000E+00  0.0000000E+00  0.0000000E+00  0.0000000E+00  0.0000000E+00
  0.0000000E+00  0.0000000E+00  0.0000000E+00  0.0000000E+00  0.0000000E+00
  0.0000000E+00  0.0000000E+00  0.0000000E+00  0.0000000E+00  0.0000000E+00
  0.0000000E+00  0.0000000E+00  0.0000000E+00  0.0000000E+00  0.0000000E+00
  0.0000000E+00  0.0000000E+00  0.0000000E+00  0.0000000E+00  0.0000000E+00
  0.0000000E+00  0.0000000E+00  0.0000000E+00  0.0000000E+00  0.0000000E+00
  0.0000000E+00  0.0000000E+00  0.0000000E+00  0.0000000E+00  0.0000000E+00
  0.0000000E+00  0.0000000E+00  0.0000000E+00  0.0000000E+00  0.0000000E+00
  0.0000000E+00  0.0000000E+00  0.0000000E+00  0.0000000E+00  0.0000000E+00
  0.0000000E+00  0.0000000E+00  0.0000000E+00  0.0000000E+00  0.0000000E+00
  0.0000000E+00  0.0000000E+00  0.0000000E+00  0.0000000E+00  0.0000000E+00
  0.0000000E+00  0.0000000E+00  0.0000000E+00  0.0000000E+00  0.0000000E+00
  0.0000000E+00  0.0000000E+00  0.0000000E+00  0.0000000E+00  0.0000000E+00
  0.0000000E+00  0.0000000E+00  0.0000000E+00  0.0000000E+00  0.0000000E+00
  0.0000000E+00  0.0000000E+00  0.0000000E+00  0.0000000E+00  0.0000000E+00
  0.0000000E+00  0.0000000E+00  0.0000000E+00  0.0000000E+00  0.0000000E+00
  0.0000000E+00  0.0000000E+00  0.0000000E+00  0.0000000E+00  0.0000000E+00
  0.0000000E+00  0.0000000E+00  0.0000000E+00  0.0000000E+00  0.0000000E+00
  0.0000000E+00  0.0000000E+00  0.0000000E+00  0.0000000E+00  0.0000000E+00
  0.0000000E+00  0.0000000E+00  0.0000000E+00  0.0000000E+00  0.0000000E+00
  0.0000000E+00  0.0000000E+00  0.0000000E+00  0.0000000E+00  0.0000000E+00
  0.0000000E+00  0.0000000E+00  0.0000000E+00  0.0000000E+00  0.0000000E+00
  0.0000000E+00  0.0000000E+00  0.0000000E+00  0.0000000E+00  0.0000000E+00
  0.0000000E+00  0.0000000E+00  0.0000000E+00  0.0000000E+00  0.0000000E+00
  0.0000000E+00  0.0000000E+00  0.0000000E+00  0.0000000E+00  0.0000000E+00
  0.0000000E+00  0.0000000E+00  0.0000000E+00  0.0000000E+00  0.0000000E+00
  0.0000000E+00  0.0000000E+00  0.0000000E+00  0.0000000E+00  0.0000000E+00
  0.0000000E+00  0.0000000E+00  0.0000000E+00  0.0000000E+00  0.0000000E+00
  0.0000000E+00  0.0000000E+00  0.0000000E+00  0.0000000E+00  0.0000000E+00
  0.0000000E+00  0.0000000E+00  0.0000000E+00  0.0000000E+00  0.0000000E+00
  0.0000000E+00  0.0000000E+00  0.0000000E+00  0.0000000E+00  0.0000000E+00
  0.0000000E+00  0.0000000E+00  0.0000000E+00  0.0000000E+00  0.0000000E+00
  0.0000000E+00  0.0000000E+00  0.0000000E+00  0.0000000E+00  0.0000000E+00
  0.0000000E+00  0.0000000E+00  0.0000000E+00  0.0000000E+00  0.0000000E+00
  0.0000000E+00  0.0000000E+00  0.0000000E+00  0.0000000E+00  0.0000000E+00
  0.0000000E+00  0.0000000E+00  0.0000000E+00  0.0000000E+00  0.0000000E+00
  0.0000000E+00  0.0000000E+00  0.0000000E+00  0.0000000E+00  0.0000000E+00
  0.0000000E+00  0.0000000E+00  0.0000000E+00  0.0000000E+00  0.0000000E+00
  0.0000000E+00  0.0000000E+00  0.0000000E+00  0.0000000E+00  0.0000000E+00
  0.0000000E+00  0.0000000E+00  0.0000000E+00  0.0000000E+00  0.0000000E+00
  0.0000000E+00  0.0000000E+00  0.0000000E+00  0.0000000E+00  0.0000000E+00
  0.0000000E+00  0.0000000E+00  0.0000000E+00  0.0000000E+00  0.0000000E+00
  0.0000000E+00  0.0000000E+00  0.0000000E+00  0.0000000E+00  0.0000000E+00
  0.0000000E+00  0.0000000E+00  0.0000000E+00  0.0000000E+00  0.0000000E+00
  0.0000000E+00  0.0000000E+00  0.0000000E+00  0.0000000E+00  0.0000000E+00
  0.0000000E+00  0.0000000E+00  0.0000000E+00  0.0000000E+00  0.0000000E+00
  0.0000000E+00  0.0000000E+00  0.0000000E+00  0.0000000E+00  0.0000000E+00
  0.0000000E+00  0.0000000E+00  0.0000000E+00  0.0000000E+00  0.0000000E+00
  0.0000000E+00  0.0000000E+00  0.0000000E+00  0.0000000E+00  0.0000000E+00
  0.0000000E+00  0.0000000E+00  0.0000000E+00  0.0000000E+00  0.0000000E+00
  0.0000000E+00  0.0000000E+00  0.0000000E+00  0.0000000E+00  0.0000000E+00
  0.0000000E+00  0.0000000E+00  0.0000000E+00  0.0000000E+00  0.0000000E+00
  0.0000000E+00  0.0000000E+00  0.0000000E+00  0.0000000E+00  0.0000000E+00
  0.0000000E+00  0.0000000E+00  0.0000000E+00  0.0000000E+00  0.0000000E+00
  0.0000000E+00  0.0000000E+00  0.0000000E+00  0.0000000E+00  0.0000000E+00
  0.0000000E+00  0.0000000E+00  0.0000000E+00  0.0000000E+00  0.0000000E+00
  0.0000000E+00  0.0000000E+00  0.0000000E+00  0.0000000E+00  0.0000000E+00
  0.0000000E+00  0.0000000E+00  0.0000000E+00  0.0000000E+00  0.0000000E+00
  0.0000000E+00  0.0000000E+00  0.0000000E+00  0.0000000E+00  0.0000000E+00
  0.0000000E+00  0.0000000E+00  0.0000000E+00  0.0000000E+00  0.0000000E+00
  0.0000000E+00  0.0000000E+00  0.0000000E+00  0.0000000E+00  0.0000000E+00
  0.0000000E+00  0.0000000E+00  0.0000000E+00  0.0000000E+00  0.0000000E+00
  0.0000000E+00  0.0000000E+00  0.0000000E+00  0.0000000E+00  0.0000000E+00
  0.0000000E+00  0.0000000E+00  0.0000000E+00  0.0000000E+00  0.0000000E+00
  0.0000000E+00  0.0000000E+00  0.0000000E+00  0.0000000E+00  0.0000000E+00
  0.0000000E+00  0.0000000E+00  0.0000000E+00  0.0000000E+00  0.0000000E+00
  0.0000000E+00  0.0000000E+00  0.0000000E+00  0.0000000E+00  0.0000000E+00
  0.0000000E+00  0.0000000E+00  0.0000000E+00  0.0000000E+00  0.0000000E+00
  0.0000000E+00  0.0000000E+00  0.0000000E+00  0.0000000E+00  0.0000000E+00
  0.0000000E+00  0.0000000E+00  0.0000000E+00  0.0000000E+00  0.0000000E+00
  0.0000000E+00  0.0000000E+00  0.0000000E+00  0.0000000E+00  0.0000000E+00
  0.0000000E+00  0.0000000E+00  0.0000000E+00  0.0000000E+00  0.0000000E+00
  0.0000000E+00  0.0000000E+00  0.0000000E+00  0.0000000E+00  0.0000000E+00
  0.0000000E+00  0.0000000E+00  0.0000000E+00  0.0000000E+00  0.0000000E+00
  0.0000000E+00  0.0000000E+00  0.0000000E+00  0.0000000E+00  0.0000000E+00
  0.0000000E+00  0.0000000E+00  0.0000000E+00  0.0000000E+00  0.0000000E+00
  0.0000000E+00  0.0000000E+00  0.0000000E+00  0.0000000E+00  0.0000000E+00
  0.0000000E+00  0.0000000E+00  0.0000000E+00  0.0000000E+00  0.0000000E+00
  0.0000000E+00  0.0000000E+00  0.0000000E+00  0.0000000E+00  0.0000000E+00
  0.0000000E+00  0.0000000E+00  0.0000000E+00  0.0000000E+00  0.0000000E+00
  0.0000000E+00  0.0000000E+00  0.0000000E+00  0.0000000E+00  0.0000000E+00
  0.0000000E+00  0.0000000E+00  0.0000000E+00  0.0000000E+00  0.0000000E+00
  0.0000000E+00  0.0000000E+00  0.0000000E+00  0.0000000E+00  0.0000000E+00
  0.0000000E+00  0.0000000E+00  0.0000000E+00  0.0000000E+00  0.0000000E+00
  0.0000000E+00  0.0000000E+00  0.0000000E+00  0.0000000E+00  0.0000000E+00
  0.0000000E+00  0.0000000E+00  0.0000000E+00  0.0000000E+00  0.0000000E+00
  0.0000000E+00  0.0000000E+00  0.0000000E+00  0.0000000E+00  0.0000000E+00
  0.0000000E+00  0.0000000E+00  0.0000000E+00  0.0000000E+00  0.0000000E+00
  0.0000000E+00  0.0000000E+00  0.0000000E+00  0.0000000E+00  0.0000000E+00
  0.0000000E+00  0.0000000E+00  0.0000000E+00  0.0000000E+00  0.0000000E+00
  0.0000000E+00  0.0000000E+00  0.0000000E+00  0.0000000E+00  0.0000000E+00
  0.0000000E+00  0.0000000E+00  0.0000000E+00  0.0000000E+00  0.0000000E+00
  0.0000000E+00  0.0000000E+00  0.0000000E+00  0.0000000E+00  0.0000000E+00
  0.0000000E+00  0.0000000E+00  0.0000000E+00  0.0000000E+00  0.0000000E+00
  0.0000000E+00  0.0000000E+00  0.0000000E+00  0.0000000E+00  0.0000000E+00
  0.0000000E+00  0.0000000E+00  0.0000000E+00  0.0000000E+00  0.0000000E+00
  0.0000000E+00  0.0000000E+00  0.0000000E+00  0.0000000E+00  0.0000000E+00
  0.0000000E+00  0.0000000E+00  0.0000000E+00  0.0000000E+00  0.0000000E+00
  0.0000000E+00  0.0000000E+00  0.0000000E+00  0.0000000E+00  0.0000000E+00
  0.0000000E+00  0.0000000E+00  0.0000000E+00  0.0000000E+00  0.0000000E+00
  0.0000000E+00  0.0000000E+00  0.0000000E+00  0.0000000E+00  0.0000000E+00
  0.0000000E+00  0.0000000E+00  0.0000000E+00  0.0000000E+00  0.0000000E+00
  0.0000000E+00   671.0000      0.0000000E+00  0.0000000E+00  0.0000000E+00
  0.0000000E+00  0.0000000E+00  0.0000000E+00  0.0000000E+00  0.0000000E+00
  0.0000000E+00  0.0000000E+00  0.0000000E+00  0.0000000E+00  0.0000000E+00
  0.0000000E+00  0.0000000E+00  0.0000000E+00  0.0000000E+00  0.0000000E+00
  0.0000000E+00  0.0000000E+00  0.0000000E+00  0.0000000E+00  0.0000000E+00
  0.0000000E+00  0.0000000E+00  0.0000000E+00  0.0000000E+00  0.0000000E+00
  0.0000000E+00  0.0000000E+00  0.0000000E+00  0.0000000E+00  0.0000000E+00
  0.0000000E+00  0.0000000E+00  0.0000000E+00  0.0000000E+00  0.0000000E+00
  0.0000000E+00  0.0000000E+00  0.0000000E+00  0.0000000E+00  0.0000000E+00
  0.0000000E+00  0.0000000E+00  0.0000000E+00  0.0000000E+00  0.0000000E+00
  0.0000000E+00  0.0000000E+00  0.0000000E+00  0.0000000E+00  0.0000000E+00
  0.0000000E+00  0.0000000E+00  0.0000000E+00  0.0000000E+00  0.0000000E+00
  0.0000000E+00  0.0000000E+00  0.0000000E+00  0.0000000E+00  0.0000000E+00
  0.0000000E+00  0.0000000E+00  0.0000000E+00  0.0000000E+00  0.0000000E+00
  0.0000000E+00  0.0000000E+00  0.0000000E+00  0.0000000E+00  0.0000000E+00
  0.0000000E+00  0.0000000E+00  0.0000000E+00  0.0000000E+00  0.0000000E+00
  0.0000000E+00  0.0000000E+00  0.0000000E+00  0.0000000E+00  0.0000000E+00
  0.0000000E+00  0.0000000E+00  0.0000000E+00  0.0000000E+00  0.0000000E+00
  0.0000000E+00  0.0000000E+00  0.0000000E+00  0.0000000E+00  0.0000000E+00
  0.0000000E+00  0.0000000E+00  0.0000000E+00  0.0000000E+00  0.0000000E+00
  0.0000000E+00  0.0000000E+00  0.0000000E+00  0.0000000E+00  0.0000000E+00
  0.0000000E+00  0.0000000E+00  0.0000000E+00  0.0000000E+00  0.0000000E+00
  0.0000000E+00  0.0000000E+00  0.0000000E+00  0.0000000E+00  0.0000000E+00
  0.0000000E+00  0.0000000E+00  0.0000000E+00  0.0000000E+00  0.0000000E+00
  0.0000000E+00  0.0000000E+00  0.0000000E+00  0.0000000E+00  0.0000000E+00
  0.0000000E+00  0.0000000E+00  0.0000000E+00  0.0000000E+00  0.0000000E+00
  0.0000000E+00  0.0000000E+00  0.0000000E+00  0.0000000E+00  0.0000000E+00
  0.0000000E+00  0.0000000E+00  0.0000000E+00  0.0000000E+00  0.0000000E+00
  0.0000000E+00  0.0000000E+00  0.0000000E+00  0.0000000E+00  0.0000000E+00
  0.0000000E+00  0.0000000E+00  0.0000000E+00  0.0000000E+00  0.0000000E+00
  0.0000000E+00  0.0000000E+00  0.0000000E+00  0.0000000E+00  0.0000000E+00
  0.0000000E+00  0.0000000E+00  0.0000000E+00  0.0000000E+00  0.0000000E+00
  0.0000000E+00  0.0000000E+00  0.0000000E+00  0.0000000E+00  0.0000000E+00
  0.0000000E+00  0.0000000E+00  0.0000000E+00  0.0000000E+00  0.0000000E+00
  0.0000000E+00  0.0000000E+00  0.0000000E+00  0.0000000E+00  0.0000000E+00
  0.0000000E+00  0.0000000E+00  0.0000000E+00  0.0000000E+00  0.0000000E+00
  0.0000000E+00  0.0000000E+00  0.0000000E+00  0.0000000E+00  0.0000000E+00
  0.0000000E+00   676.0000      0.0000000E+00  0.0000000E+00  0.0000000E+00
  0.0000000E+00  0.0000000E+00  0.0000000E+00  0.0000000E+00  0.0000000E+00
  0.0000000E+00  0.0000000E+00  0.0000000E+00  0.0000000E+00  0.0000000E+00
  0.0000000E+00  0.0000000E+00  0.0000000E+00  0.0000000E+00  0.0000000E+00
  0.0000000E+00  0.0000000E+00  0.0000000E+00  0.0000000E+00  0.0000000E+00
  0.0000000E+00  0.0000000E+00  0.0000000E+00  0.0000000E+00  0.0000000E+00
  0.0000000E+00  0.0000000E+00  0.0000000E+00  0.0000000E+00  0.0000000E+00
  0.0000000E+00  0.0000000E+00  0.0000000E+00  0.0000000E+00  0.0000000E+00
  0.0000000E+00  0.0000000E+00  0.0000000E+00  0.0000000E+00  0.0000000E+00
  0.0000000E+00  0.0000000E+00  0.0000000E+00  0.0000000E+00  0.0000000E+00
  0.0000000E+00  0.0000000E+00  0.0000000E+00  0.0000000E+00  0.0000000E+00
  0.0000000E+00  0.0000000E+00  0.0000000E+00  0.0000000E+00  0.0000000E+00
  0.0000000E+00  0.0000000E+00  0.0000000E+00  0.0000000E+00  0.0000000E+00
  0.0000000E+00  0.0000000E+00  0.0000000E+00  0.0000000E+00  0.0000000E+00
  0.0000000E+00  0.0000000E+00  0.0000000E+00  0.0000000E+00  0.0000000E+00
  0.0000000E+00  0.0000000E+00  0.0000000E+00  0.0000000E+00  0.0000000E+00
  0.0000000E+00  0.0000000E+00  0.0000000E+00  0.0000000E+00  0.0000000E+00
  0.0000000E+00  0.0000000E+00  0.0000000E+00  0.0000000E+00  0.0000000E+00
  0.0000000E+00  0.0000000E+00  0.0000000E+00  0.0000000E+00  0.0000000E+00
  0.0000000E+00  0.0000000E+00  0.0000000E+00  0.0000000E+00  0.0000000E+00
  0.0000000E+00  0.0000000E+00  0.0000000E+00  0.0000000E+00  0.0000000E+00
  0.0000000E+00  0.0000000E+00  0.0000000E+00  0.0000000E+00  0.0000000E+00
  0.0000000E+00  0.0000000E+00  0.0000000E+00  0.0000000E+00  0.0000000E+00
  0.0000000E+00  0.0000000E+00  0.0000000E+00  0.0000000E+00  0.0000000E+00
  0.0000000E+00  0.0000000E+00  0.0000000E+00  0.0000000E+00  0.0000000E+00
  0.0000000E+00  0.0000000E+00  0.0000000E+00  0.0000000E+00  0.0000000E+00
  0.0000000E+00  0.0000000E+00  0.0000000E+00  0.0000000E+00  0.0000000E+00
  0.0000000E+00  0.0000000E+00  0.0000000E+00  0.0000000E+00  0.0000000E+00
  0.0000000E+00  0.0000000E+00  0.0000000E+00  0.0000000E+00  0.0000000E+00
  0.0000000E+00  0.0000000E+00  0.0000000E+00  0.0000000E+00  0.0000000E+00
  0.0000000E+00  0.0000000E+00  0.0000000E+00  0.0000000E+00  0.0000000E+00
  0.0000000E+00  0.0000000E+00  0.0000000E+00  0.0000000E+00  0.0000000E+00
  0.0000000E+00  0.0000000E+00  0.0000000E+00  0.0000000E+00  0.0000000E+00
  0.0000000E+00  0.0000000E+00  0.0000000E+00  0.0000000E+00  0.0000000E+00
  0.0000000E+00  0.0000000E+00  0.0000000E+00  0.0000000E+00  0.0000000E+00
  0.0000000E+00  0.0000000E+00  0.0000000E+00  0.0000000E+00  0.0000000E+00
  0.0000000E+00  0.0000000E+00  0.0000000E+00  0.0000000E+00  0.0000000E+00
   686.0000       662.0000      0.0000000E+00  0.0000000E+00  0.0000000E+00
  0.0000000E+00  0.0000000E+00  0.0000000E+00  0.0000000E+00  0.0000000E+00
  0.0000000E+00  0.0000000E+00  0.0000000E+00  0.0000000E+00  0.0000000E+00
  0.0000000E+00  0.0000000E+00  0.0000000E+00  0.0000000E+00  0.0000000E+00
  0.0000000E+00  0.0000000E+00  0.0000000E+00  0.0000000E+00  0.0000000E+00
  0.0000000E+00  0.0000000E+00  0.0000000E+00  0.0000000E+00  0.0000000E+00
  0.0000000E+00  0.0000000E+00  0.0000000E+00  0.0000000E+00  0.0000000E+00
  0.0000000E+00  0.0000000E+00  0.0000000E+00  0.0000000E+00  0.0000000E+00
  0.0000000E+00  0.0000000E+00  0.0000000E+00  0.0000000E+00  0.0000000E+00
  0.0000000E+00  0.0000000E+00  0.0000000E+00  0.0000000E+00  0.0000000E+00
  0.0000000E+00  0.0000000E+00  0.0000000E+00  0.0000000E+00  0.0000000E+00
  0.0000000E+00  0.0000000E+00  0.0000000E+00  0.0000000E+00  0.0000000E+00
  0.0000000E+00  0.0000000E+00  0.0000000E+00  0.0000000E+00  0.0000000E+00
  0.0000000E+00  0.0000000E+00  0.0000000E+00  0.0000000E+00  0.0000000E+00
  0.0000000E+00  0.0000000E+00  0.0000000E+00  0.0000000E+00  0.0000000E+00
  0.0000000E+00  0.0000000E+00  0.0000000E+00  0.0000000E+00  0.0000000E+00
  0.0000000E+00  0.0000000E+00  0.0000000E+00  0.0000000E+00  0.0000000E+00
  0.0000000E+00  0.0000000E+00  0.0000000E+00  0.0000000E+00  0.0000000E+00
  0.0000000E+00  0.0000000E+00  0.0000000E+00  0.0000000E+00  0.0000000E+00
  0.0000000E+00  0.0000000E+00  0.0000000E+00  0.0000000E+00  0.0000000E+00
  0.0000000E+00  0.0000000E+00  0.0000000E+00  0.0000000E+00  0.0000000E+00
  0.0000000E+00  0.0000000E+00  0.0000000E+00  0.0000000E+00  0.0000000E+00
  0.0000000E+00  0.0000000E+00  0.0000000E+00  0.0000000E+00  0.0000000E+00
  0.0000000E+00  0.0000000E+00  0.0000000E+00  0.0000000E+00  0.0000000E+00
  0.0000000E+00  0.0000000E+00  0.0000000E+00  0.0000000E+00  0.0000000E+00
  0.0000000E+00  0.0000000E+00  0.0000000E+00  0.0000000E+00  0.0000000E+00
  0.0000000E+00  0.0000000E+00  0.0000000E+00  0.0000000E+00  0.0000000E+00
  0.0000000E+00  0.0000000E+00  0.0000000E+00  0.0000000E+00  0.0000000E+00
  0.0000000E+00  0.0000000E+00  0.0000000E+00  0.0000000E+00  0.0000000E+00
  0.0000000E+00  0.0000000E+00  0.0000000E+00  0.0000000E+00  0.0000000E+00
  0.0000000E+00  0.0000000E+00  0.0000000E+00  0.0000000E+00  0.0000000E+00
  0.0000000E+00  0.0000000E+00  0.0000000E+00  0.0000000E+00  0.0000000E+00
  0.0000000E+00  0.0000000E+00  0.0000000E+00  0.0000000E+00  0.0000000E+00
  0.0000000E+00  0.0000000E+00  0.0000000E+00  0.0000000E+00  0.0000000E+00
  0.0000000E+00  0.0000000E+00  0.0000000E+00  0.0000000E+00  0.0000000E+00
  0.0000000E+00  0.0000000E+00  0.0000000E+00  0.0000000E+00  0.0000000E+00
  0.0000000E+00  0.0000000E+00   685.0000      0.0000000E+00   685.0000    
   678.0000       667.0000      0.0000000E+00  0.0000000E+00  0.0000000E+00
  0.0000000E+00  0.0000000E+00  0.0000000E+00  0.0000000E+00  0.0000000E+00
  0.0000000E+00  0.0000000E+00  0.0000000E+00  0.0000000E+00  0.0000000E+00
  0.0000000E+00  0.0000000E+00  0.0000000E+00  0.0000000E+00  0.0000000E+00
  0.0000000E+00  0.0000000E+00  0.0000000E+00  0.0000000E+00  0.0000000E+00
  0.0000000E+00  0.0000000E+00  0.0000000E+00  0.0000000E+00  0.0000000E+00
  0.0000000E+00  0.0000000E+00  0.0000000E+00  0.0000000E+00  0.0000000E+00
  0.0000000E+00  0.0000000E+00  0.0000000E+00  0.0000000E+00  0.0000000E+00
  0.0000000E+00  0.0000000E+00  0.0000000E+00  0.0000000E+00  0.0000000E+00
  0.0000000E+00  0.0000000E+00  0.0000000E+00  0.0000000E+00  0.0000000E+00
  0.0000000E+00  0.0000000E+00  0.0000000E+00  0.0000000E+00  0.0000000E+00
  0.0000000E+00  0.0000000E+00  0.0000000E+00  0.0000000E+00  0.0000000E+00
  0.0000000E+00  0.0000000E+00  0.0000000E+00  0.0000000E+00  0.0000000E+00
  0.0000000E+00  0.0000000E+00  0.0000000E+00  0.0000000E+00  0.0000000E+00
  0.0000000E+00  0.0000000E+00  0.0000000E+00  0.0000000E+00  0.0000000E+00
  0.0000000E+00  0.0000000E+00  0.0000000E+00  0.0000000E+00  0.0000000E+00
  0.0000000E+00  0.0000000E+00  0.0000000E+00  0.0000000E+00  0.0000000E+00
  0.0000000E+00  0.0000000E+00  0.0000000E+00  0.0000000E+00  0.0000000E+00
  0.0000000E+00  0.0000000E+00  0.0000000E+00  0.0000000E+00  0.0000000E+00
  0.0000000E+00  0.0000000E+00  0.0000000E+00  0.0000000E+00  0.0000000E+00
  0.0000000E+00  0.0000000E+00  0.0000000E+00  0.0000000E+00  0.0000000E+00
  0.0000000E+00  0.0000000E+00  0.0000000E+00  0.0000000E+00  0.0000000E+00
  0.0000000E+00  0.0000000E+00  0.0000000E+00  0.0000000E+00  0.0000000E+00
  0.0000000E+00  0.0000000E+00  0.0000000E+00  0.0000000E+00  0.0000000E+00
  0.0000000E+00  0.0000000E+00  0.0000000E+00  0.0000000E+00  0.0000000E+00
  0.0000000E+00  0.0000000E+00  0.0000000E+00  0.0000000E+00  0.0000000E+00
  0.0000000E+00  0.0000000E+00  0.0000000E+00  0.0000000E+00  0.0000000E+00
  0.0000000E+00  0.0000000E+00  0.0000000E+00  0.0000000E+00  0.0000000E+00
  0.0000000E+00  0.0000000E+00  0.0000000E+00  0.0000000E+00  0.0000000E+00
  0.0000000E+00  0.0000000E+00  0.0000000E+00  0.0000000E+00  0.0000000E+00
  0.0000000E+00  0.0000000E+00  0.0000000E+00  0.0000000E+00  0.0000000E+00
  0.0000000E+00  0.0000000E+00  0.0000000E+00  0.0000000E+00  0.0000000E+00
  0.0000000E+00  0.0000000E+00  0.0000000E+00  0.0000000E+00  0.0000000E+00
  0.0000000E+00  0.0000000E+00  0.0000000E+00  0.0000000E+00  0.0000000E+00
  0.0000000E+00  0.0000000E+00  0.0000000E+00  0.0000000E+00  0.0000000E+00
  0.0000000E+00  0.0000000E+00  0.0000000E+00  0.0000000E+00  0.0000000E+00
  0.0000000E+00  0.0000000E+00   681.0000       683.0000       679.0000    
   679.0000       671.0000      0.0000000E+00  0.0000000E+00  0.0000000E+00
  0.0000000E+00  0.0000000E+00  0.0000000E+00  0.0000000E+00  0.0000000E+00
  0.0000000E+00  0.0000000E+00  0.0000000E+00  0.0000000E+00  0.0000000E+00
  0.0000000E+00  0.0000000E+00  0.0000000E+00  0.0000000E+00  0.0000000E+00
  0.0000000E+00  0.0000000E+00  0.0000000E+00  0.0000000E+00  0.0000000E+00
  0.0000000E+00   650.0000       646.0000      0.0000000E+00  0.0000000E+00
  0.0000000E+00  0.0000000E+00  0.0000000E+00  0.0000000E+00  0.0000000E+00
  0.0000000E+00  0.0000000E+00  0.0000000E+00  0.0000000E+00  0.0000000E+00
  0.0000000E+00  0.0000000E+00  0.0000000E+00  0.0000000E+00  0.0000000E+00
  0.0000000E+00  0.0000000E+00  0.0000000E+00  0.0000000E+00  0.0000000E+00
  0.0000000E+00  0.0000000E+00  0.0000000E+00  0.0000000E+00  0.0000000E+00
  0.0000000E+00  0.0000000E+00  0.0000000E+00  0.0000000E+00  0.0000000E+00
  0.0000000E+00  0.0000000E+00  0.0000000E+00  0.0000000E+00  0.0000000E+00
  0.0000000E+00  0.0000000E+00  0.0000000E+00  0.0000000E+00  0.0000000E+00
  0.0000000E+00  0.0000000E+00  0.0000000E+00  0.0000000E+00  0.0000000E+00
  0.0000000E+00  0.0000000E+00  0.0000000E+00  0.0000000E+00  0.0000000E+00
  0.0000000E+00  0.0000000E+00  0.0000000E+00  0.0000000E+00  0.0000000E+00
  0.0000000E+00  0.0000000E+00  0.0000000E+00  0.0000000E+00  0.0000000E+00
  0.0000000E+00  0.0000000E+00  0.0000000E+00  0.0000000E+00  0.0000000E+00
  0.0000000E+00  0.0000000E+00  0.0000000E+00  0.0000000E+00  0.0000000E+00
  0.0000000E+00  0.0000000E+00  0.0000000E+00  0.0000000E+00  0.0000000E+00
  0.0000000E+00  0.0000000E+00  0.0000000E+00  0.0000000E+00  0.0000000E+00
  0.0000000E+00  0.0000000E+00  0.0000000E+00  0.0000000E+00  0.0000000E+00
  0.0000000E+00  0.0000000E+00  0.0000000E+00  0.0000000E+00  0.0000000E+00
  0.0000000E+00  0.0000000E+00  0.0000000E+00  0.0000000E+00  0.0000000E+00
  0.0000000E+00  0.0000000E+00  0.0000000E+00  0.0000000E+00  0.0000000E+00
  0.0000000E+00  0.0000000E+00  0.0000000E+00  0.0000000E+00  0.0000000E+00
  0.0000000E+00  0.0000000E+00  0.0000000E+00  0.0000000E+00  0.0000000E+00
  0.0000000E+00  0.0000000E+00  0.0000000E+00  0.0000000E+00  0.0000000E+00
  0.0000000E+00  0.0000000E+00  0.0000000E+00  0.0000000E+00  0.0000000E+00
  0.0000000E+00  0.0000000E+00  0.0000000E+00  0.0000000E+00  0.0000000E+00
  0.0000000E+00  0.0000000E+00  0.0000000E+00  0.0000000E+00  0.0000000E+00
  0.0000000E+00  0.0000000E+00  0.0000000E+00  0.0000000E+00  0.0000000E+00
  0.0000000E+00  0.0000000E+00  0.0000000E+00  0.0000000E+00  0.0000000E+00
  0.0000000E+00   705.0000      0.0000000E+00  0.0000000E+00  0.0000000E+00
  0.0000000E+00  0.0000000E+00  0.0000000E+00  0.0000000E+00  0.0000000E+00
  0.0000000E+00   684.0000       691.0000       672.0000       668.0000    
   668.0000       670.0000      0.0000000E+00  0.0000000E+00  0.0000000E+00
  0.0000000E+00  0.0000000E+00  0.0000000E+00  0.0000000E+00  0.0000000E+00
  0.0000000E+00  0.0000000E+00  0.0000000E+00  0.0000000E+00  0.0000000E+00
  0.0000000E+00  0.0000000E+00  0.0000000E+00  0.0000000E+00  0.0000000E+00
  0.0000000E+00  0.0000000E+00  0.0000000E+00  0.0000000E+00   645.0000    
   655.0000       651.0000       653.0000       658.0000      0.0000000E+00
  0.0000000E+00  0.0000000E+00  0.0000000E+00  0.0000000E+00  0.0000000E+00
  0.0000000E+00  0.0000000E+00  0.0000000E+00  0.0000000E+00  0.0000000E+00
  0.0000000E+00  0.0000000E+00  0.0000000E+00  0.0000000E+00  0.0000000E+00
  0.0000000E+00  0.0000000E+00  0.0000000E+00  0.0000000E+00  0.0000000E+00
  0.0000000E+00  0.0000000E+00  0.0000000E+00  0.0000000E+00  0.0000000E+00
  0.0000000E+00  0.0000000E+00  0.0000000E+00  0.0000000E+00  0.0000000E+00
  0.0000000E+00  0.0000000E+00  0.0000000E+00  0.0000000E+00  0.0000000E+00
  0.0000000E+00  0.0000000E+00  0.0000000E+00  0.0000000E+00  0.0000000E+00
  0.0000000E+00  0.0000000E+00  0.0000000E+00  0.0000000E+00  0.0000000E+00
  0.0000000E+00  0.0000000E+00  0.0000000E+00  0.0000000E+00  0.0000000E+00
  0.0000000E+00  0.0000000E+00  0.0000000E+00  0.0000000E+00  0.0000000E+00
  0.0000000E+00  0.0000000E+00  0.0000000E+00  0.0000000E+00  0.0000000E+00
  0.0000000E+00  0.0000000E+00  0.0000000E+00  0.0000000E+00  0.0000000E+00
  0.0000000E+00  0.0000000E+00  0.0000000E+00  0.0000000E+00  0.0000000E+00
  0.0000000E+00  0.0000000E+00  0.0000000E+00  0.0000000E+00  0.0000000E+00
  0.0000000E+00  0.0000000E+00  0.0000000E+00  0.0000000E+00  0.0000000E+00
  0.0000000E+00  0.0000000E+00  0.0000000E+00  0.0000000E+00  0.0000000E+00
  0.0000000E+00  0.0000000E+00  0.0000000E+00  0.0000000E+00  0.0000000E+00
  0.0000000E+00  0.0000000E+00  0.0000000E+00  0.0000000E+00  0.0000000E+00
  0.0000000E+00  0.0000000E+00  0.0000000E+00  0.0000000E+00  0.0000000E+00
  0.0000000E+00  0.0000000E+00  0.0000000E+00  0.0000000E+00  0.0000000E+00
  0.0000000E+00  0.0000000E+00  0.0000000E+00  0.0000000E+00  0.0000000E+00
  0.0000000E+00  0.0000000E+00  0.0000000E+00  0.0000000E+00  0.0000000E+00
  0.0000000E+00  0.0000000E+00  0.0000000E+00   754.0000       727.0000    
  0.0000000E+00   720.0000      0.0000000E+00  0.0000000E+00  0.0000000E+00
  0.0000000E+00  0.0000000E+00  0.0000000E+00  0.0000000E+00  0.0000000E+00
  0.0000000E+00  0.0000000E+00  0.0000000E+00  0.0000000E+00  0.0000000E+00
  0.0000000E+00  0.0000000E+00  0.0000000E+00   699.0000       711.0000    
   723.0000       715.0000       716.0000      0.0000000E+00   701.0000    
   706.0000      0.0000000E+00  0.0000000E+00  0.0000000E+00  0.0000000E+00
  0.0000000E+00  0.0000000E+00   685.0000       676.0000       671.0000    
   665.0000       663.0000      0.0000000E+00  0.0000000E+00  0.0000000E+00
  0.0000000E+00  0.0000000E+00  0.0000000E+00  0.0000000E+00  0.0000000E+00
  0.0000000E+00  0.0000000E+00  0.0000000E+00  0.0000000E+00  0.0000000E+00
  0.0000000E+00  0.0000000E+00  0.0000000E+00  0.0000000E+00  0.0000000E+00
  0.0000000E+00  0.0000000E+00  0.0000000E+00  0.0000000E+00   662.0000    
   658.0000       665.0000       662.0000       651.0000      0.0000000E+00
  0.0000000E+00  0.0000000E+00  0.0000000E+00  0.0000000E+00  0.0000000E+00
  0.0000000E+00  0.0000000E+00  0.0000000E+00  0.0000000E+00  0.0000000E+00
  0.0000000E+00  0.0000000E+00  0.0000000E+00  0.0000000E+00  0.0000000E+00
  0.0000000E+00  0.0000000E+00  0.0000000E+00  0.0000000E+00  0.0000000E+00
  0.0000000E+00  0.0000000E+00  0.0000000E+00  0.0000000E+00  0.0000000E+00
  0.0000000E+00  0.0000000E+00  0.0000000E+00  0.0000000E+00  0.0000000E+00
  0.0000000E+00  0.0000000E+00  0.0000000E+00  0.0000000E+00  0.0000000E+00
  0.0000000E+00  0.0000000E+00  0.0000000E+00  0.0000000E+00  0.0000000E+00
  0.0000000E+00  0.0000000E+00  0.0000000E+00  0.0000000E+00  0.0000000E+00
  0.0000000E+00  0.0000000E+00  0.0000000E+00  0.0000000E+00  0.0000000E+00
  0.0000000E+00  0.0000000E+00  0.0000000E+00  0.0000000E+00  0.0000000E+00
  0.0000000E+00  0.0000000E+00  0.0000000E+00  0.0000000E+00  0.0000000E+00
  0.0000000E+00  0.0000000E+00  0.0000000E+00  0.0000000E+00  0.0000000E+00
  0.0000000E+00  0.0000000E+00  0.0000000E+00  0.0000000E+00  0.0000000E+00
  0.0000000E+00  0.0000000E+00  0.0000000E+00  0.0000000E+00  0.0000000E+00
  0.0000000E+00  0.0000000E+00  0.0000000E+00  0.0000000E+00  0.0000000E+00
  0.0000000E+00  0.0000000E+00  0.0000000E+00  0.0000000E+00  0.0000000E+00
  0.0000000E+00  0.0000000E+00  0.0000000E+00  0.0000000E+00  0.0000000E+00
  0.0000000E+00  0.0000000E+00  0.0000000E+00  0.0000000E+00  0.0000000E+00
  0.0000000E+00  0.0000000E+00  0.0000000E+00  0.0000000E+00  0.0000000E+00
  0.0000000E+00  0.0000000E+00  0.0000000E+00  0.0000000E+00  0.0000000E+00
  0.0000000E+00  0.0000000E+00  0.0000000E+00  0.0000000E+00  0.0000000E+00
  0.0000000E+00  0.0000000E+00  0.0000000E+00  0.0000000E+00  0.0000000E+00
   716.0000       723.0000       721.0000       734.0000       730.0000    
   719.0000       725.0000       726.0000       730.0000       719.0000    
   711.0000      0.0000000E+00  0.0000000E+00   719.0000       717.0000    
   716.0000       714.0000       715.0000      0.0000000E+00  0.0000000E+00
  0.0000000E+00  0.0000000E+00  0.0000000E+00   704.0000       718.0000    
   754.0000       771.0000       725.0000      0.0000000E+00   705.0000    
   698.0000       693.0000       696.0000      0.0000000E+00   683.0000    
   685.0000      0.0000000E+00   687.0000       686.0000       670.0000    
   660.0000       655.0000      0.0000000E+00  0.0000000E+00  0.0000000E+00
  0.0000000E+00  0.0000000E+00  0.0000000E+00  0.0000000E+00  0.0000000E+00
  0.0000000E+00  0.0000000E+00  0.0000000E+00  0.0000000E+00  0.0000000E+00
  0.0000000E+00  0.0000000E+00  0.0000000E+00  0.0000000E+00  0.0000000E+00
  0.0000000E+00  0.0000000E+00  0.0000000E+00  0.0000000E+00   649.0000    
   659.0000       662.0000       661.0000      0.0000000E+00  0.0000000E+00
  0.0000000E+00  0.0000000E+00  0.0000000E+00  0.0000000E+00  0.0000000E+00
  0.0000000E+00  0.0000000E+00  0.0000000E+00  0.0000000E+00  0.0000000E+00
  0.0000000E+00  0.0000000E+00  0.0000000E+00  0.0000000E+00  0.0000000E+00
  0.0000000E+00  0.0000000E+00  0.0000000E+00  0.0000000E+00  0.0000000E+00
  0.0000000E+00  0.0000000E+00  0.0000000E+00  0.0000000E+00  0.0000000E+00
  0.0000000E+00  0.0000000E+00  0.0000000E+00  0.0000000E+00  0.0000000E+00
  0.0000000E+00  0.0000000E+00  0.0000000E+00  0.0000000E+00  0.0000000E+00
  0.0000000E+00  0.0000000E+00  0.0000000E+00  0.0000000E+00  0.0000000E+00
  0.0000000E+00  0.0000000E+00  0.0000000E+00  0.0000000E+00  0.0000000E+00
  0.0000000E+00  0.0000000E+00  0.0000000E+00  0.0000000E+00  0.0000000E+00
  0.0000000E+00  0.0000000E+00  0.0000000E+00  0.0000000E+00  0.0000000E+00
  0.0000000E+00  0.0000000E+00  0.0000000E+00  0.0000000E+00  0.0000000E+00
  0.0000000E+00  0.0000000E+00  0.0000000E+00  0.0000000E+00  0.0000000E+00
  0.0000000E+00  0.0000000E+00  0.0000000E+00  0.0000000E+00  0.0000000E+00
  0.0000000E+00  0.0000000E+00  0.0000000E+00  0.0000000E+00  0.0000000E+00
  0.0000000E+00  0.0000000E+00  0.0000000E+00  0.0000000E+00  0.0000000E+00
  0.0000000E+00  0.0000000E+00  0.0000000E+00  0.0000000E+00  0.0000000E+00
  0.0000000E+00  0.0000000E+00  0.0000000E+00  0.0000000E+00  0.0000000E+00
  0.0000000E+00  0.0000000E+00  0.0000000E+00  0.0000000E+00  0.0000000E+00
  0.0000000E+00  0.0000000E+00  0.0000000E+00  0.0000000E+00  0.0000000E+00
  0.0000000E+00  0.0000000E+00  0.0000000E+00  0.0000000E+00  0.0000000E+00
  0.0000000E+00  0.0000000E+00  0.0000000E+00  0.0000000E+00  0.0000000E+00
  0.0000000E+00  0.0000000E+00  0.0000000E+00  0.0000000E+00  0.0000000E+00
   732.0000       729.0000       728.0000       734.0000       733.0000    
   730.0000       734.0000       727.0000       721.0000       721.0000    
   715.0000      0.0000000E+00  0.0000000E+00   724.0000       729.0000    
   719.0000       724.0000       738.0000       733.0000       724.0000    
   717.0000       714.0000       713.0000       707.0000       713.0000    
   736.0000       747.0000       727.0000       725.0000       707.0000    
   699.0000       700.0000       688.0000       689.0000       687.0000    
   680.0000       685.0000       693.0000       699.0000       671.0000    
  0.0000000E+00  0.0000000E+00  0.0000000E+00  0.0000000E+00  0.0000000E+00
  0.0000000E+00  0.0000000E+00  0.0000000E+00  0.0000000E+00  0.0000000E+00
  0.0000000E+00  0.0000000E+00  0.0000000E+00  0.0000000E+00  0.0000000E+00
  0.0000000E+00  0.0000000E+00  0.0000000E+00  0.0000000E+00  0.0000000E+00
  0.0000000E+00  0.0000000E+00  0.0000000E+00  0.0000000E+00   656.0000    
   660.0000       673.0000       669.0000       662.0000      0.0000000E+00
   650.0000      0.0000000E+00  0.0000000E+00  0.0000000E+00  0.0000000E+00
  0.0000000E+00  0.0000000E+00  0.0000000E+00  0.0000000E+00  0.0000000E+00
  0.0000000E+00  0.0000000E+00  0.0000000E+00  0.0000000E+00  0.0000000E+00
  0.0000000E+00  0.0000000E+00  0.0000000E+00  0.0000000E+00  0.0000000E+00
  0.0000000E+00  0.0000000E+00  0.0000000E+00  0.0000000E+00  0.0000000E+00
  0.0000000E+00  0.0000000E+00  0.0000000E+00  0.0000000E+00  0.0000000E+00
  0.0000000E+00  0.0000000E+00  0.0000000E+00  0.0000000E+00  0.0000000E+00
  0.0000000E+00  0.0000000E+00  0.0000000E+00  0.0000000E+00  0.0000000E+00
  0.0000000E+00  0.0000000E+00  0.0000000E+00  0.0000000E+00  0.0000000E+00
  0.0000000E+00  0.0000000E+00  0.0000000E+00  0.0000000E+00  0.0000000E+00
  0.0000000E+00  0.0000000E+00  0.0000000E+00  0.0000000E+00  0.0000000E+00
  0.0000000E+00  0.0000000E+00  0.0000000E+00  0.0000000E+00  0.0000000E+00
  0.0000000E+00  0.0000000E+00  0.0000000E+00  0.0000000E+00  0.0000000E+00
  0.0000000E+00  0.0000000E+00  0.0000000E+00  0.0000000E+00  0.0000000E+00
  0.0000000E+00  0.0000000E+00  0.0000000E+00  0.0000000E+00  0.0000000E+00
  0.0000000E+00  0.0000000E+00  0.0000000E+00  0.0000000E+00  0.0000000E+00
  0.0000000E+00  0.0000000E+00  0.0000000E+00  0.0000000E+00  0.0000000E+00
  0.0000000E+00  0.0000000E+00  0.0000000E+00  0.0000000E+00  0.0000000E+00
  0.0000000E+00  0.0000000E+00  0.0000000E+00  0.0000000E+00  0.0000000E+00
  0.0000000E+00  0.0000000E+00  0.0000000E+00  0.0000000E+00  0.0000000E+00
  0.0000000E+00  0.0000000E+00  0.0000000E+00  0.0000000E+00  0.0000000E+00
  0.0000000E+00  0.0000000E+00  0.0000000E+00  0.0000000E+00  0.0000000E+00
  0.0000000E+00  0.0000000E+00  0.0000000E+00  0.0000000E+00  0.0000000E+00
   730.0000       746.0000       740.0000       751.0000       750.0000    
   760.0000       742.0000       742.0000       730.0000       723.0000    
  0.0000000E+00  0.0000000E+00   724.0000       726.0000       757.0000    
   736.0000       737.0000       772.0000       764.0000       752.0000    
   734.0000       735.0000       727.0000       721.0000       723.0000    
   731.0000       738.0000       727.0000       715.0000       711.0000    
   705.0000       699.0000       697.0000      0.0000000E+00  0.0000000E+00
   690.0000       695.0000       698.0000       690.0000      0.0000000E+00
  0.0000000E+00  0.0000000E+00  0.0000000E+00  0.0000000E+00  0.0000000E+00
  0.0000000E+00  0.0000000E+00  0.0000000E+00  0.0000000E+00  0.0000000E+00
  0.0000000E+00  0.0000000E+00  0.0000000E+00  0.0000000E+00  0.0000000E+00
  0.0000000E+00  0.0000000E+00  0.0000000E+00  0.0000000E+00  0.0000000E+00
  0.0000000E+00  0.0000000E+00  0.0000000E+00  0.0000000E+00   665.0000    
   656.0000       678.0000       668.0000       663.0000       667.0000    
   657.0000      0.0000000E+00  0.0000000E+00  0.0000000E+00  0.0000000E+00
  0.0000000E+00  0.0000000E+00  0.0000000E+00  0.0000000E+00  0.0000000E+00
  0.0000000E+00  0.0000000E+00  0.0000000E+00  0.0000000E+00  0.0000000E+00
  0.0000000E+00  0.0000000E+00  0.0000000E+00  0.0000000E+00  0.0000000E+00
  0.0000000E+00  0.0000000E+00  0.0000000E+00  0.0000000E+00  0.0000000E+00
  0.0000000E+00  0.0000000E+00  0.0000000E+00  0.0000000E+00  0.0000000E+00
  0.0000000E+00  0.0000000E+00  0.0000000E+00  0.0000000E+00  0.0000000E+00
  0.0000000E+00  0.0000000E+00  0.0000000E+00  0.0000000E+00  0.0000000E+00
  0.0000000E+00  0.0000000E+00  0.0000000E+00  0.0000000E+00  0.0000000E+00
  0.0000000E+00  0.0000000E+00  0.0000000E+00  0.0000000E+00  0.0000000E+00
  0.0000000E+00  0.0000000E+00  0.0000000E+00  0.0000000E+00  0.0000000E+00
  0.0000000E+00  0.0000000E+00  0.0000000E+00  0.0000000E+00  0.0000000E+00
  0.0000000E+00  0.0000000E+00  0.0000000E+00  0.0000000E+00  0.0000000E+00
  0.0000000E+00  0.0000000E+00  0.0000000E+00  0.0000000E+00  0.0000000E+00
  0.0000000E+00  0.0000000E+00  0.0000000E+00  0.0000000E+00  0.0000000E+00
  0.0000000E+00  0.0000000E+00  0.0000000E+00  0.0000000E+00  0.0000000E+00
  0.0000000E+00  0.0000000E+00  0.0000000E+00  0.0000000E+00  0.0000000E+00
  0.0000000E+00  0.0000000E+00  0.0000000E+00  0.0000000E+00  0.0000000E+00
  0.0000000E+00  0.0000000E+00  0.0000000E+00  0.0000000E+00  0.0000000E+00
  0.0000000E+00  0.0000000E+00  0.0000000E+00  0.0000000E+00  0.0000000E+00
  0.0000000E+00  0.0000000E+00  0.0000000E+00  0.0000000E+00  0.0000000E+00
  0.0000000E+00  0.0000000E+00  0.0000000E+00  0.0000000E+00  0.0000000E+00
  0.0000000E+00  0.0000000E+00  0.0000000E+00  0.0000000E+00  0.0000000E+00
   731.0000       747.0000       754.0000       750.0000       774.0000    
   771.0000       755.0000       757.0000       737.0000       734.0000    
   725.0000       728.0000       733.0000       752.0000       748.0000    
   787.0000       787.0000       780.0000       764.0000       772.0000    
   747.0000       762.0000       740.0000       755.0000       733.0000    
   769.0000       752.0000       731.0000       724.0000       709.0000    
   704.0000      0.0000000E+00  0.0000000E+00  0.0000000E+00  0.0000000E+00
   693.0000       689.0000       693.0000       696.0000      0.0000000E+00
  0.0000000E+00  0.0000000E+00  0.0000000E+00  0.0000000E+00  0.0000000E+00
  0.0000000E+00  0.0000000E+00  0.0000000E+00  0.0000000E+00  0.0000000E+00
  0.0000000E+00  0.0000000E+00  0.0000000E+00  0.0000000E+00  0.0000000E+00
  0.0000000E+00   683.0000       684.0000       693.0000      0.0000000E+00
   685.0000      0.0000000E+00   654.0000       682.0000       681.0000    
   666.0000       662.0000       681.0000       663.0000      0.0000000E+00
  0.0000000E+00  0.0000000E+00  0.0000000E+00  0.0000000E+00  0.0000000E+00
  0.0000000E+00  0.0000000E+00  0.0000000E+00  0.0000000E+00  0.0000000E+00
  0.0000000E+00  0.0000000E+00  0.0000000E+00  0.0000000E+00  0.0000000E+00
  0.0000000E+00  0.0000000E+00  0.0000000E+00  0.0000000E+00  0.0000000E+00
  0.0000000E+00  0.0000000E+00  0.0000000E+00  0.0000000E+00  0.0000000E+00
  0.0000000E+00  0.0000000E+00  0.0000000E+00  0.0000000E+00  0.0000000E+00
  0.0000000E+00  0.0000000E+00  0.0000000E+00  0.0000000E+00  0.0000000E+00
  0.0000000E+00  0.0000000E+00  0.0000000E+00  0.0000000E+00  0.0000000E+00
  0.0000000E+00  0.0000000E+00  0.0000000E+00  0.0000000E+00  0.0000000E+00
  0.0000000E+00  0.0000000E+00  0.0000000E+00  0.0000000E+00  0.0000000E+00
  0.0000000E+00  0.0000000E+00  0.0000000E+00  0.0000000E+00  0.0000000E+00
  0.0000000E+00  0.0000000E+00  0.0000000E+00  0.0000000E+00  0.0000000E+00
  0.0000000E+00  0.0000000E+00  0.0000000E+00  0.0000000E+00  0.0000000E+00
  0.0000000E+00  0.0000000E+00  0.0000000E+00  0.0000000E+00  0.0000000E+00
  0.0000000E+00  0.0000000E+00  0.0000000E+00  0.0000000E+00  0.0000000E+00
  0.0000000E+00  0.0000000E+00  0.0000000E+00  0.0000000E+00  0.0000000E+00
  0.0000000E+00  0.0000000E+00  0.0000000E+00  0.0000000E+00  0.0000000E+00
  0.0000000E+00  0.0000000E+00  0.0000000E+00  0.0000000E+00  0.0000000E+00
  0.0000000E+00  0.0000000E+00  0.0000000E+00  0.0000000E+00  0.0000000E+00
  0.0000000E+00  0.0000000E+00  0.0000000E+00  0.0000000E+00  0.0000000E+00
  0.0000000E+00  0.0000000E+00  0.0000000E+00  0.0000000E+00  0.0000000E+00
  0.0000000E+00  0.0000000E+00  0.0000000E+00  0.0000000E+00  0.0000000E+00
  0.0000000E+00  0.0000000E+00  0.0000000E+00  0.0000000E+00  0.0000000E+00
   729.0000       741.0000       761.0000       782.0000       764.0000    
   797.0000       781.0000       782.0000       757.0000       770.0000    
   734.0000       761.0000       751.0000       761.0000       773.0000    
   766.0000       785.0000       771.0000       773.0000       760.0000    
   780.0000       778.0000       757.0000       750.0000       750.0000    
   761.0000       758.0000       755.0000       730.0000       726.0000    
   721.0000       702.0000      0.0000000E+00   703.0000       694.0000    
  0.0000000E+00   692.0000       704.0000       706.0000      0.0000000E+00
  0.0000000E+00  0.0000000E+00  0.0000000E+00  0.0000000E+00  0.0000000E+00
  0.0000000E+00  0.0000000E+00  0.0000000E+00  0.0000000E+00  0.0000000E+00
  0.0000000E+00  0.0000000E+00  0.0000000E+00  0.0000000E+00  0.0000000E+00
  0.0000000E+00   699.0000       696.0000       701.0000       682.0000    
   695.0000       673.0000       674.0000       681.0000       681.0000    
   675.0000       669.0000       668.0000       667.0000       682.0000    
  0.0000000E+00  0.0000000E+00  0.0000000E+00  0.0000000E+00  0.0000000E+00
  0.0000000E+00  0.0000000E+00  0.0000000E+00  0.0000000E+00  0.0000000E+00
  0.0000000E+00  0.0000000E+00  0.0000000E+00  0.0000000E+00  0.0000000E+00
  0.0000000E+00  0.0000000E+00  0.0000000E+00  0.0000000E+00  0.0000000E+00
  0.0000000E+00  0.0000000E+00  0.0000000E+00  0.0000000E+00  0.0000000E+00
  0.0000000E+00  0.0000000E+00  0.0000000E+00  0.0000000E+00  0.0000000E+00
  0.0000000E+00  0.0000000E+00  0.0000000E+00  0.0000000E+00  0.0000000E+00
  0.0000000E+00  0.0000000E+00  0.0000000E+00  0.0000000E+00  0.0000000E+00
  0.0000000E+00  0.0000000E+00  0.0000000E+00  0.0000000E+00  0.0000000E+00
  0.0000000E+00  0.0000000E+00  0.0000000E+00  0.0000000E+00  0.0000000E+00
  0.0000000E+00  0.0000000E+00  0.0000000E+00  0.0000000E+00  0.0000000E+00
  0.0000000E+00  0.0000000E+00  0.0000000E+00  0.0000000E+00  0.0000000E+00
  0.0000000E+00  0.0000000E+00  0.0000000E+00  0.0000000E+00  0.0000000E+00
  0.0000000E+00  0.0000000E+00  0.0000000E+00  0.0000000E+00  0.0000000E+00
  0.0000000E+00  0.0000000E+00  0.0000000E+00  0.0000000E+00  0.0000000E+00
  0.0000000E+00  0.0000000E+00  0.0000000E+00  0.0000000E+00  0.0000000E+00
  0.0000000E+00  0.0000000E+00  0.0000000E+00  0.0000000E+00  0.0000000E+00
  0.0000000E+00  0.0000000E+00  0.0000000E+00  0.0000000E+00  0.0000000E+00
  0.0000000E+00  0.0000000E+00  0.0000000E+00  0.0000000E+00  0.0000000E+00
  0.0000000E+00  0.0000000E+00  0.0000000E+00  0.0000000E+00  0.0000000E+00
  0.0000000E+00  0.0000000E+00  0.0000000E+00  0.0000000E+00  0.0000000E+00
  0.0000000E+00  0.0000000E+00  0.0000000E+00  0.0000000E+00  0.0000000E+00
  0.0000000E+00  0.0000000E+00  0.0000000E+00  0.0000000E+00  0.0000000E+00
   730.0000       739.0000       752.0000       767.0000       789.0000    
   771.0000       768.0000       780.0000       791.0000       799.0000    
   762.0000       784.0000       770.0000       779.0000       784.0000    
   776.0000       775.0000       786.0000       764.0000       755.0000    
   758.0000       779.0000       778.0000       774.0000       750.0000    
   775.0000       767.0000       762.0000       737.0000       737.0000    
   736.0000      0.0000000E+00   707.0000       699.0000      0.0000000E+00
  0.0000000E+00   691.0000       695.0000       691.0000       697.0000    
  0.0000000E+00  0.0000000E+00  0.0000000E+00  0.0000000E+00  0.0000000E+00
  0.0000000E+00  0.0000000E+00  0.0000000E+00  0.0000000E+00  0.0000000E+00
  0.0000000E+00  0.0000000E+00  0.0000000E+00  0.0000000E+00  0.0000000E+00
   698.0000       696.0000       695.0000       701.0000       698.0000    
   689.0000       674.0000       664.0000       677.0000       675.0000    
   677.0000       676.0000       668.0000       670.0000       686.0000    
  0.0000000E+00  0.0000000E+00  0.0000000E+00  0.0000000E+00  0.0000000E+00
  0.0000000E+00  0.0000000E+00  0.0000000E+00  0.0000000E+00  0.0000000E+00
  0.0000000E+00  0.0000000E+00  0.0000000E+00  0.0000000E+00  0.0000000E+00
  0.0000000E+00  0.0000000E+00  0.0000000E+00  0.0000000E+00  0.0000000E+00
  0.0000000E+00  0.0000000E+00  0.0000000E+00  0.0000000E+00  0.0000000E+00
  0.0000000E+00  0.0000000E+00  0.0000000E+00  0.0000000E+00  0.0000000E+00
  0.0000000E+00  0.0000000E+00  0.0000000E+00  0.0000000E+00  0.0000000E+00
  0.0000000E+00  0.0000000E+00  0.0000000E+00  0.0000000E+00  0.0000000E+00
  0.0000000E+00  0.0000000E+00  0.0000000E+00  0.0000000E+00  0.0000000E+00
  0.0000000E+00  0.0000000E+00  0.0000000E+00  0.0000000E+00  0.0000000E+00
  0.0000000E+00  0.0000000E+00  0.0000000E+00  0.0000000E+00  0.0000000E+00
  0.0000000E+00  0.0000000E+00  0.0000000E+00  0.0000000E+00  0.0000000E+00
  0.0000000E+00  0.0000000E+00  0.0000000E+00  0.0000000E+00  0.0000000E+00
  0.0000000E+00  0.0000000E+00  0.0000000E+00  0.0000000E+00  0.0000000E+00
  0.0000000E+00  0.0000000E+00  0.0000000E+00  0.0000000E+00  0.0000000E+00
  0.0000000E+00  0.0000000E+00  0.0000000E+00  0.0000000E+00  0.0000000E+00
  0.0000000E+00  0.0000000E+00  0.0000000E+00  0.0000000E+00  0.0000000E+00
  0.0000000E+00  0.0000000E+00  0.0000000E+00  0.0000000E+00  0.0000000E+00
  0.0000000E+00  0.0000000E+00  0.0000000E+00  0.0000000E+00  0.0000000E+00
  0.0000000E+00  0.0000000E+00  0.0000000E+00  0.0000000E+00  0.0000000E+00
  0.0000000E+00  0.0000000E+00  0.0000000E+00  0.0000000E+00  0.0000000E+00
  0.0000000E+00  0.0000000E+00  0.0000000E+00  0.0000000E+00  0.0000000E+00
  0.0000000E+00  0.0000000E+00  0.0000000E+00  0.0000000E+00  0.0000000E+00
   732.0000       744.0000       752.0000       767.0000       791.0000    
   770.0000       763.0000       767.0000       789.0000       799.0000    
   764.0000       773.0000       786.0000       786.0000       764.0000    
   775.0000       762.0000       764.0000       773.0000       773.0000    
   761.0000       756.0000       759.0000       764.0000       752.0000    
   762.0000       762.0000       762.0000       734.0000       751.0000    
   741.0000       721.0000       715.0000       705.0000       705.0000    
   705.0000       694.0000       697.0000      0.0000000E+00  0.0000000E+00
  0.0000000E+00  0.0000000E+00  0.0000000E+00  0.0000000E+00  0.0000000E+00
  0.0000000E+00  0.0000000E+00  0.0000000E+00  0.0000000E+00  0.0000000E+00
  0.0000000E+00  0.0000000E+00  0.0000000E+00   677.0000       702.0000    
   702.0000       704.0000       702.0000       697.0000       698.0000    
   689.0000       676.0000       664.0000       676.0000       685.0000    
   685.0000       688.0000       676.0000       685.0000       685.0000    
   690.0000      0.0000000E+00  0.0000000E+00  0.0000000E+00  0.0000000E+00
  0.0000000E+00  0.0000000E+00  0.0000000E+00  0.0000000E+00  0.0000000E+00
  0.0000000E+00  0.0000000E+00  0.0000000E+00  0.0000000E+00  0.0000000E+00
  0.0000000E+00  0.0000000E+00  0.0000000E+00  0.0000000E+00  0.0000000E+00
  0.0000000E+00  0.0000000E+00  0.0000000E+00  0.0000000E+00  0.0000000E+00
  0.0000000E+00  0.0000000E+00  0.0000000E+00  0.0000000E+00  0.0000000E+00
  0.0000000E+00  0.0000000E+00  0.0000000E+00  0.0000000E+00  0.0000000E+00
  0.0000000E+00  0.0000000E+00  0.0000000E+00  0.0000000E+00  0.0000000E+00
  0.0000000E+00  0.0000000E+00  0.0000000E+00  0.0000000E+00  0.0000000E+00
  0.0000000E+00  0.0000000E+00  0.0000000E+00  0.0000000E+00  0.0000000E+00
  0.0000000E+00  0.0000000E+00  0.0000000E+00  0.0000000E+00  0.0000000E+00
  0.0000000E+00  0.0000000E+00  0.0000000E+00  0.0000000E+00  0.0000000E+00
  0.0000000E+00  0.0000000E+00  0.0000000E+00  0.0000000E+00  0.0000000E+00
  0.0000000E+00  0.0000000E+00  0.0000000E+00  0.0000000E+00  0.0000000E+00
  0.0000000E+00  0.0000000E+00  0.0000000E+00  0.0000000E+00  0.0000000E+00
  0.0000000E+00  0.0000000E+00  0.0000000E+00  0.0000000E+00  0.0000000E+00
  0.0000000E+00  0.0000000E+00  0.0000000E+00  0.0000000E+00  0.0000000E+00
  0.0000000E+00  0.0000000E+00  0.0000000E+00  0.0000000E+00  0.0000000E+00
  0.0000000E+00  0.0000000E+00  0.0000000E+00  0.0000000E+00  0.0000000E+00
  0.0000000E+00  0.0000000E+00  0.0000000E+00  0.0000000E+00  0.0000000E+00
  0.0000000E+00  0.0000000E+00  0.0000000E+00  0.0000000E+00  0.0000000E+00
  0.0000000E+00  0.0000000E+00  0.0000000E+00  0.0000000E+00  0.0000000E+00
  0.0000000E+00  0.0000000E+00  0.0000000E+00  0.0000000E+00  0.0000000E+00
   740.0000       748.0000       754.0000       794.0000       795.0000    
   788.0000       767.0000       764.0000       783.0000       787.0000    
   791.0000       778.0000       773.0000       789.0000       777.0000    
   760.0000       754.0000       751.0000       755.0000       778.0000    
   753.0000       744.0000       757.0000       741.0000       760.0000    
   747.0000       751.0000       743.0000       733.0000       731.0000    
   734.0000       747.0000       726.0000       711.0000       713.0000    
   705.0000       701.0000      0.0000000E+00  0.0000000E+00  0.0000000E+00
  0.0000000E+00  0.0000000E+00  0.0000000E+00  0.0000000E+00  0.0000000E+00
  0.0000000E+00  0.0000000E+00  0.0000000E+00  0.0000000E+00   684.0000    
  0.0000000E+00  0.0000000E+00  0.0000000E+00  0.0000000E+00   681.0000    
   679.0000       691.0000       697.0000       695.0000       696.0000    
   683.0000       675.0000       679.0000       682.0000       690.0000    
   686.0000       685.0000       673.0000       681.0000       692.0000    
   696.0000      0.0000000E+00   681.0000      0.0000000E+00  0.0000000E+00
  0.0000000E+00  0.0000000E+00  0.0000000E+00  0.0000000E+00  0.0000000E+00
  0.0000000E+00  0.0000000E+00  0.0000000E+00  0.0000000E+00  0.0000000E+00
  0.0000000E+00  0.0000000E+00  0.0000000E+00  0.0000000E+00  0.0000000E+00
  0.0000000E+00  0.0000000E+00  0.0000000E+00  0.0000000E+00  0.0000000E+00
  0.0000000E+00  0.0000000E+00  0.0000000E+00  0.0000000E+00  0.0000000E+00
  0.0000000E+00  0.0000000E+00  0.0000000E+00  0.0000000E+00  0.0000000E+00
  0.0000000E+00  0.0000000E+00  0.0000000E+00  0.0000000E+00  0.0000000E+00
  0.0000000E+00  0.0000000E+00  0.0000000E+00  0.0000000E+00  0.0000000E+00
  0.0000000E+00  0.0000000E+00  0.0000000E+00  0.0000000E+00  0.0000000E+00
  0.0000000E+00  0.0000000E+00  0.0000000E+00  0.0000000E+00  0.0000000E+00
  0.0000000E+00  0.0000000E+00  0.0000000E+00  0.0000000E+00  0.0000000E+00
  0.0000000E+00  0.0000000E+00  0.0000000E+00  0.0000000E+00  0.0000000E+00
  0.0000000E+00  0.0000000E+00  0.0000000E+00  0.0000000E+00  0.0000000E+00
  0.0000000E+00  0.0000000E+00  0.0000000E+00  0.0000000E+00  0.0000000E+00
  0.0000000E+00  0.0000000E+00  0.0000000E+00  0.0000000E+00  0.0000000E+00
  0.0000000E+00  0.0000000E+00  0.0000000E+00  0.0000000E+00  0.0000000E+00
  0.0000000E+00  0.0000000E+00  0.0000000E+00  0.0000000E+00  0.0000000E+00
  0.0000000E+00  0.0000000E+00  0.0000000E+00  0.0000000E+00  0.0000000E+00
  0.0000000E+00  0.0000000E+00  0.0000000E+00  0.0000000E+00  0.0000000E+00
  0.0000000E+00  0.0000000E+00  0.0000000E+00  0.0000000E+00  0.0000000E+00
  0.0000000E+00  0.0000000E+00  0.0000000E+00  0.0000000E+00  0.0000000E+00
  0.0000000E+00  0.0000000E+00  0.0000000E+00  0.0000000E+00  0.0000000E+00
   749.0000       769.0000       775.0000       794.0000       781.0000    
   790.0000       779.0000       755.0000       767.0000       783.0000    
   783.0000       764.0000       763.0000       790.0000       785.0000    
   756.0000       754.0000       744.0000       750.0000       746.0000    
   743.0000       749.0000       744.0000       734.0000       738.0000    
   740.0000       743.0000       744.0000       737.0000       730.0000    
   729.0000       753.0000       741.0000       719.0000       717.0000    
   712.0000      0.0000000E+00  0.0000000E+00  0.0000000E+00  0.0000000E+00
  0.0000000E+00  0.0000000E+00  0.0000000E+00  0.0000000E+00  0.0000000E+00
  0.0000000E+00  0.0000000E+00  0.0000000E+00  0.0000000E+00   703.0000    
   696.0000      0.0000000E+00  0.0000000E+00   690.0000       692.0000    
   683.0000       693.0000       691.0000       691.0000       690.0000    
   683.0000       675.0000       678.0000       692.0000       688.0000    
   688.0000       687.0000       678.0000       690.0000       696.0000    
   696.0000       697.0000       692.0000       693.0000      0.0000000E+00
  0.0000000E+00  0.0000000E+00  0.0000000E+00  0.0000000E+00  0.0000000E+00
  0.0000000E+00  0.0000000E+00  0.0000000E+00  0.0000000E+00  0.0000000E+00
  0.0000000E+00  0.0000000E+00  0.0000000E+00  0.0000000E+00  0.0000000E+00
  0.0000000E+00  0.0000000E+00  0.0000000E+00  0.0000000E+00  0.0000000E+00
  0.0000000E+00  0.0000000E+00  0.0000000E+00  0.0000000E+00  0.0000000E+00
  0.0000000E+00  0.0000000E+00  0.0000000E+00  0.0000000E+00  0.0000000E+00
  0.0000000E+00  0.0000000E+00  0.0000000E+00  0.0000000E+00  0.0000000E+00
  0.0000000E+00  0.0000000E+00  0.0000000E+00  0.0000000E+00  0.0000000E+00
  0.0000000E+00  0.0000000E+00  0.0000000E+00  0.0000000E+00  0.0000000E+00
  0.0000000E+00  0.0000000E+00  0.0000000E+00  0.0000000E+00  0.0000000E+00
  0.0000000E+00  0.0000000E+00  0.0000000E+00  0.0000000E+00  0.0000000E+00
  0.0000000E+00  0.0000000E+00  0.0000000E+00  0.0000000E+00  0.0000000E+00
  0.0000000E+00  0.0000000E+00  0.0000000E+00  0.0000000E+00  0.0000000E+00
  0.0000000E+00  0.0000000E+00  0.0000000E+00  0.0000000E+00  0.0000000E+00
  0.0000000E+00  0.0000000E+00  0.0000000E+00  0.0000000E+00  0.0000000E+00
  0.0000000E+00  0.0000000E+00  0.0000000E+00  0.0000000E+00  0.0000000E+00
  0.0000000E+00  0.0000000E+00  0.0000000E+00  0.0000000E+00  0.0000000E+00
  0.0000000E+00  0.0000000E+00  0.0000000E+00  0.0000000E+00  0.0000000E+00
  0.0000000E+00  0.0000000E+00  0.0000000E+00  0.0000000E+00  0.0000000E+00
  0.0000000E+00  0.0000000E+00  0.0000000E+00  0.0000000E+00  0.0000000E+00
  0.0000000E+00  0.0000000E+00  0.0000000E+00  0.0000000E+00  0.0000000E+00
  0.0000000E+00  0.0000000E+00  0.0000000E+00  0.0000000E+00  0.0000000E+00
   761.0000       758.0000       800.0000       799.0000       789.0000    
   766.0000       761.0000       755.0000       766.0000       769.0000    
   773.0000       760.0000       754.0000       779.0000       776.0000    
   766.0000       757.0000       748.0000       742.0000       741.0000    
   739.0000       741.0000       741.0000       736.0000       732.0000    
   737.0000       736.0000       739.0000       745.0000       732.0000    
  0.0000000E+00   729.0000       730.0000       720.0000       711.0000    
   710.0000      0.0000000E+00  0.0000000E+00  0.0000000E+00  0.0000000E+00
  0.0000000E+00  0.0000000E+00  0.0000000E+00  0.0000000E+00  0.0000000E+00
  0.0000000E+00  0.0000000E+00  0.0000000E+00   696.0000       701.0000    
   700.0000      0.0000000E+00   693.0000       687.0000       683.0000    
   691.0000       688.0000       688.0000       684.0000       685.0000    
   685.0000       678.0000       681.0000       679.0000       684.0000    
   684.0000       686.0000       684.0000       693.0000       697.0000    
   696.0000       699.0000       702.0000       695.0000      0.0000000E+00
   699.0000       694.0000      0.0000000E+00  0.0000000E+00  0.0000000E+00
  0.0000000E+00  0.0000000E+00  0.0000000E+00  0.0000000E+00  0.0000000E+00
  0.0000000E+00  0.0000000E+00  0.0000000E+00  0.0000000E+00  0.0000000E+00
  0.0000000E+00  0.0000000E+00  0.0000000E+00  0.0000000E+00  0.0000000E+00
  0.0000000E+00  0.0000000E+00  0.0000000E+00  0.0000000E+00  0.0000000E+00
  0.0000000E+00  0.0000000E+00  0.0000000E+00  0.0000000E+00  0.0000000E+00
  0.0000000E+00  0.0000000E+00  0.0000000E+00  0.0000000E+00  0.0000000E+00
  0.0000000E+00  0.0000000E+00  0.0000000E+00  0.0000000E+00  0.0000000E+00
  0.0000000E+00  0.0000000E+00  0.0000000E+00  0.0000000E+00  0.0000000E+00
  0.0000000E+00  0.0000000E+00  0.0000000E+00  0.0000000E+00  0.0000000E+00
  0.0000000E+00  0.0000000E+00  0.0000000E+00  0.0000000E+00  0.0000000E+00
  0.0000000E+00  0.0000000E+00  0.0000000E+00  0.0000000E+00  0.0000000E+00
  0.0000000E+00  0.0000000E+00  0.0000000E+00  0.0000000E+00  0.0000000E+00
  0.0000000E+00  0.0000000E+00  0.0000000E+00  0.0000000E+00  0.0000000E+00
  0.0000000E+00  0.0000000E+00  0.0000000E+00  0.0000000E+00  0.0000000E+00
  0.0000000E+00  0.0000000E+00  0.0000000E+00  0.0000000E+00  0.0000000E+00
  0.0000000E+00  0.0000000E+00  0.0000000E+00  0.0000000E+00  0.0000000E+00
  0.0000000E+00  0.0000000E+00  0.0000000E+00  0.0000000E+00  0.0000000E+00
  0.0000000E+00  0.0000000E+00  0.0000000E+00  0.0000000E+00  0.0000000E+00
  0.0000000E+00  0.0000000E+00  0.0000000E+00  0.0000000E+00  0.0000000E+00
  0.0000000E+00  0.0000000E+00  0.0000000E+00  0.0000000E+00  0.0000000E+00
  0.0000000E+00  0.0000000E+00  0.0000000E+00  0.0000000E+00  0.0000000E+00
   787.0000       783.0000       781.0000       797.0000       779.0000    
   763.0000       757.0000       749.0000       762.0000       774.0000    
   768.0000       762.0000       753.0000       761.0000       763.0000    
   778.0000       760.0000       751.0000       743.0000       739.0000    
   736.0000       741.0000       739.0000       738.0000       732.0000    
   733.0000       739.0000       740.0000       732.0000       736.0000    
   730.0000      0.0000000E+00  0.0000000E+00   717.0000      0.0000000E+00
  0.0000000E+00  0.0000000E+00  0.0000000E+00  0.0000000E+00  0.0000000E+00
  0.0000000E+00  0.0000000E+00  0.0000000E+00  0.0000000E+00  0.0000000E+00
  0.0000000E+00  0.0000000E+00  0.0000000E+00   700.0000       702.0000    
   699.0000       688.0000       698.0000       687.0000       684.0000    
   691.0000       686.0000       688.0000       687.0000       689.0000    
   682.0000       681.0000       678.0000       681.0000       684.0000    
   682.0000       679.0000       680.0000       684.0000       692.0000    
   694.0000       701.0000       707.0000       705.0000       701.0000    
   699.0000       698.0000      0.0000000E+00  0.0000000E+00  0.0000000E+00
  0.0000000E+00  0.0000000E+00  0.0000000E+00  0.0000000E+00  0.0000000E+00
  0.0000000E+00  0.0000000E+00  0.0000000E+00  0.0000000E+00  0.0000000E+00
  0.0000000E+00  0.0000000E+00  0.0000000E+00  0.0000000E+00  0.0000000E+00
  0.0000000E+00  0.0000000E+00  0.0000000E+00  0.0000000E+00  0.0000000E+00
  0.0000000E+00  0.0000000E+00  0.0000000E+00  0.0000000E+00  0.0000000E+00
  0.0000000E+00  0.0000000E+00  0.0000000E+00  0.0000000E+00  0.0000000E+00
  0.0000000E+00  0.0000000E+00  0.0000000E+00  0.0000000E+00  0.0000000E+00
  0.0000000E+00  0.0000000E+00  0.0000000E+00  0.0000000E+00  0.0000000E+00
  0.0000000E+00  0.0000000E+00  0.0000000E+00  0.0000000E+00  0.0000000E+00
  0.0000000E+00  0.0000000E+00  0.0000000E+00  0.0000000E+00  0.0000000E+00
  0.0000000E+00  0.0000000E+00  0.0000000E+00  0.0000000E+00  0.0000000E+00
  0.0000000E+00  0.0000000E+00  0.0000000E+00  0.0000000E+00  0.0000000E+00
  0.0000000E+00  0.0000000E+00  0.0000000E+00  0.0000000E+00  0.0000000E+00
  0.0000000E+00  0.0000000E+00  0.0000000E+00  0.0000000E+00  0.0000000E+00
  0.0000000E+00  0.0000000E+00  0.0000000E+00  0.0000000E+00  0.0000000E+00
  0.0000000E+00  0.0000000E+00  0.0000000E+00  0.0000000E+00  0.0000000E+00
  0.0000000E+00  0.0000000E+00  0.0000000E+00  0.0000000E+00  0.0000000E+00
  0.0000000E+00  0.0000000E+00  0.0000000E+00  0.0000000E+00  0.0000000E+00
  0.0000000E+00  0.0000000E+00  0.0000000E+00  0.0000000E+00  0.0000000E+00
  0.0000000E+00  0.0000000E+00  0.0000000E+00  0.0000000E+00  0.0000000E+00
  0.0000000E+00  0.0000000E+00  0.0000000E+00  0.0000000E+00  0.0000000E+00
   801.0000       794.0000       795.0000       777.0000       797.0000    
   766.0000       758.0000       748.0000       752.0000       756.0000    
   755.0000       752.0000       748.0000       755.0000       760.0000    
   759.0000       767.0000       775.0000       745.0000       741.0000    
   734.0000       736.0000       737.0000       746.0000       728.0000    
   731.0000       738.0000       735.0000       729.0000       727.0000    
   731.0000       733.0000      0.0000000E+00  0.0000000E+00  0.0000000E+00
   713.0000      0.0000000E+00  0.0000000E+00  0.0000000E+00  0.0000000E+00
  0.0000000E+00  0.0000000E+00  0.0000000E+00  0.0000000E+00  0.0000000E+00
  0.0000000E+00  0.0000000E+00   708.0000       705.0000       702.0000    
   700.0000       695.0000       693.0000       689.0000       687.0000    
   695.0000       690.0000       688.0000       686.0000       684.0000    
   681.0000       687.0000       691.0000       684.0000       690.0000    
   685.0000       679.0000       681.0000       682.0000       688.0000    
   693.0000       692.0000       696.0000       704.0000       702.0000    
   706.0000       695.0000       692.0000      0.0000000E+00  0.0000000E+00
  0.0000000E+00  0.0000000E+00  0.0000000E+00  0.0000000E+00  0.0000000E+00
  0.0000000E+00  0.0000000E+00  0.0000000E+00  0.0000000E+00  0.0000000E+00
  0.0000000E+00  0.0000000E+00  0.0000000E+00  0.0000000E+00  0.0000000E+00
  0.0000000E+00  0.0000000E+00  0.0000000E+00  0.0000000E+00  0.0000000E+00
  0.0000000E+00  0.0000000E+00  0.0000000E+00  0.0000000E+00  0.0000000E+00
  0.0000000E+00  0.0000000E+00  0.0000000E+00  0.0000000E+00  0.0000000E+00
  0.0000000E+00  0.0000000E+00  0.0000000E+00  0.0000000E+00  0.0000000E+00
  0.0000000E+00  0.0000000E+00  0.0000000E+00  0.0000000E+00  0.0000000E+00
  0.0000000E+00  0.0000000E+00  0.0000000E+00  0.0000000E+00  0.0000000E+00
  0.0000000E+00  0.0000000E+00  0.0000000E+00  0.0000000E+00  0.0000000E+00
  0.0000000E+00  0.0000000E+00  0.0000000E+00  0.0000000E+00  0.0000000E+00
  0.0000000E+00  0.0000000E+00  0.0000000E+00  0.0000000E+00  0.0000000E+00
  0.0000000E+00  0.0000000E+00  0.0000000E+00  0.0000000E+00  0.0000000E+00
  0.0000000E+00  0.0000000E+00  0.0000000E+00  0.0000000E+00  0.0000000E+00
  0.0000000E+00  0.0000000E+00  0.0000000E+00  0.0000000E+00  0.0000000E+00
  0.0000000E+00  0.0000000E+00  0.0000000E+00  0.0000000E+00  0.0000000E+00
  0.0000000E+00  0.0000000E+00  0.0000000E+00  0.0000000E+00  0.0000000E+00
  0.0000000E+00  0.0000000E+00  0.0000000E+00  0.0000000E+00  0.0000000E+00
  0.0000000E+00  0.0000000E+00  0.0000000E+00  0.0000000E+00  0.0000000E+00
  0.0000000E+00  0.0000000E+00  0.0000000E+00  0.0000000E+00  0.0000000E+00
  0.0000000E+00  0.0000000E+00  0.0000000E+00  0.0000000E+00  0.0000000E+00
   782.0000       782.0000       791.0000       781.0000       775.0000    
   757.0000       758.0000       753.0000       747.0000       745.0000    
   751.0000       742.0000       747.0000       745.0000       750.0000    
   753.0000       764.0000       766.0000       763.0000       737.0000    
   734.0000       732.0000       732.0000       728.0000       726.0000    
   733.0000       753.0000       747.0000       730.0000       724.0000    
   729.0000       730.0000       730.0000       744.0000       724.0000    
   732.0000       717.0000       716.0000       716.0000       737.0000    
   731.0000      0.0000000E+00  0.0000000E+00   717.0000      0.0000000E+00
   706.0000      0.0000000E+00   714.0000       710.0000       707.0000    
   703.0000       698.0000       699.0000       692.0000       692.0000    
   690.0000       694.0000       690.0000       688.0000       684.0000    
   685.0000       684.0000       687.0000       697.0000       706.0000    
   696.0000       684.0000       686.0000       686.0000       687.0000    
   702.0000       699.0000       700.0000       704.0000       707.0000    
   705.0000       701.0000       694.0000      0.0000000E+00  0.0000000E+00
  0.0000000E+00  0.0000000E+00  0.0000000E+00  0.0000000E+00  0.0000000E+00
  0.0000000E+00  0.0000000E+00  0.0000000E+00  0.0000000E+00  0.0000000E+00
  0.0000000E+00  0.0000000E+00  0.0000000E+00  0.0000000E+00  0.0000000E+00
  0.0000000E+00  0.0000000E+00  0.0000000E+00  0.0000000E+00  0.0000000E+00
  0.0000000E+00  0.0000000E+00  0.0000000E+00  0.0000000E+00  0.0000000E+00
  0.0000000E+00  0.0000000E+00  0.0000000E+00  0.0000000E+00  0.0000000E+00
  0.0000000E+00  0.0000000E+00  0.0000000E+00  0.0000000E+00  0.0000000E+00
  0.0000000E+00  0.0000000E+00  0.0000000E+00  0.0000000E+00  0.0000000E+00
  0.0000000E+00  0.0000000E+00  0.0000000E+00  0.0000000E+00  0.0000000E+00
  0.0000000E+00  0.0000000E+00  0.0000000E+00  0.0000000E+00  0.0000000E+00
  0.0000000E+00  0.0000000E+00  0.0000000E+00  0.0000000E+00  0.0000000E+00
  0.0000000E+00  0.0000000E+00  0.0000000E+00  0.0000000E+00  0.0000000E+00
  0.0000000E+00  0.0000000E+00  0.0000000E+00  0.0000000E+00  0.0000000E+00
  0.0000000E+00  0.0000000E+00  0.0000000E+00  0.0000000E+00  0.0000000E+00
  0.0000000E+00  0.0000000E+00  0.0000000E+00  0.0000000E+00  0.0000000E+00
  0.0000000E+00  0.0000000E+00  0.0000000E+00  0.0000000E+00  0.0000000E+00
  0.0000000E+00  0.0000000E+00  0.0000000E+00  0.0000000E+00  0.0000000E+00
  0.0000000E+00  0.0000000E+00  0.0000000E+00  0.0000000E+00  0.0000000E+00
  0.0000000E+00  0.0000000E+00  0.0000000E+00  0.0000000E+00  0.0000000E+00
  0.0000000E+00  0.0000000E+00  0.0000000E+00  0.0000000E+00  0.0000000E+00
  0.0000000E+00  0.0000000E+00  0.0000000E+00  0.0000000E+00  0.0000000E+00
   770.0000       790.0000       780.0000       773.0000       763.0000    
   766.0000       761.0000       752.0000       749.0000       743.0000    
   741.0000       743.0000       740.0000       749.0000       754.0000    
   757.0000       775.0000       752.0000       769.0000       751.0000    
   735.0000       734.0000       727.0000       735.0000       728.0000    
   733.0000       738.0000       738.0000       727.0000       728.0000    
   730.0000       745.0000       734.0000       748.0000       733.0000    
   760.0000       721.0000       725.0000       745.0000       755.0000    
   739.0000       712.0000       741.0000       732.0000       725.0000    
   721.0000       714.0000       715.0000       726.0000       711.0000    
   707.0000       704.0000       700.0000       699.0000       692.0000    
   694.0000       693.0000       689.0000       688.0000       685.0000    
   684.0000       687.0000       691.0000       718.0000       723.0000    
   716.0000       698.0000       696.0000       689.0000       690.0000    
   699.0000       697.0000       700.0000       703.0000       700.0000    
   707.0000       704.0000       700.0000       695.0000      0.0000000E+00
  0.0000000E+00  0.0000000E+00  0.0000000E+00  0.0000000E+00  0.0000000E+00
  0.0000000E+00  0.0000000E+00  0.0000000E+00  0.0000000E+00  0.0000000E+00
  0.0000000E+00  0.0000000E+00  0.0000000E+00  0.0000000E+00  0.0000000E+00
  0.0000000E+00  0.0000000E+00  0.0000000E+00  0.0000000E+00  0.0000000E+00
  0.0000000E+00  0.0000000E+00  0.0000000E+00  0.0000000E+00  0.0000000E+00
  0.0000000E+00  0.0000000E+00  0.0000000E+00  0.0000000E+00  0.0000000E+00
  0.0000000E+00  0.0000000E+00  0.0000000E+00  0.0000000E+00  0.0000000E+00
  0.0000000E+00  0.0000000E+00  0.0000000E+00  0.0000000E+00  0.0000000E+00
  0.0000000E+00  0.0000000E+00  0.0000000E+00  0.0000000E+00  0.0000000E+00
  0.0000000E+00  0.0000000E+00  0.0000000E+00  0.0000000E+00  0.0000000E+00
  0.0000000E+00  0.0000000E+00  0.0000000E+00  0.0000000E+00  0.0000000E+00
  0.0000000E+00  0.0000000E+00  0.0000000E+00  0.0000000E+00  0.0000000E+00
  0.0000000E+00  0.0000000E+00  0.0000000E+00  0.0000000E+00  0.0000000E+00
  0.0000000E+00  0.0000000E+00  0.0000000E+00  0.0000000E+00  0.0000000E+00
  0.0000000E+00  0.0000000E+00  0.0000000E+00  0.0000000E+00  0.0000000E+00
  0.0000000E+00  0.0000000E+00  0.0000000E+00  0.0000000E+00  0.0000000E+00
  0.0000000E+00  0.0000000E+00  0.0000000E+00  0.0000000E+00  0.0000000E+00
  0.0000000E+00  0.0000000E+00  0.0000000E+00  0.0000000E+00  0.0000000E+00
  0.0000000E+00  0.0000000E+00  0.0000000E+00  0.0000000E+00  0.0000000E+00
  0.0000000E+00  0.0000000E+00  0.0000000E+00  0.0000000E+00  0.0000000E+00
  0.0000000E+00  0.0000000E+00  0.0000000E+00  0.0000000E+00  0.0000000E+00
   766.0000       767.0000       773.0000       790.0000       774.0000    
   774.0000       754.0000       751.0000       749.0000       742.0000    
   740.0000       739.0000       738.0000       745.0000       746.0000    
   748.0000       784.0000       760.0000       746.0000       743.0000    
   738.0000       732.0000       729.0000       727.0000       725.0000    
   725.0000       732.0000       731.0000       722.0000       728.0000    
   737.0000       759.0000       744.0000       745.0000       752.0000    
   762.0000       748.0000       733.0000       739.0000       757.0000    
   742.0000       717.0000       736.0000       756.0000       738.0000    
   758.0000       726.0000       721.0000       740.0000       722.0000    
   715.0000       704.0000       701.0000       695.0000       697.0000    
   698.0000       704.0000       697.0000       692.0000       689.0000    
   688.0000       689.0000       694.0000       725.0000       725.0000    
   733.0000       718.0000       705.0000       700.0000       697.0000    
   701.0000       701.0000       708.0000       709.0000       701.0000    
   704.0000       695.0000       697.0000       698.0000      0.0000000E+00
  0.0000000E+00  0.0000000E+00  0.0000000E+00  0.0000000E+00  0.0000000E+00
  0.0000000E+00  0.0000000E+00  0.0000000E+00  0.0000000E+00  0.0000000E+00
  0.0000000E+00  0.0000000E+00  0.0000000E+00  0.0000000E+00  0.0000000E+00
  0.0000000E+00  0.0000000E+00  0.0000000E+00  0.0000000E+00  0.0000000E+00
  0.0000000E+00  0.0000000E+00  0.0000000E+00  0.0000000E+00  0.0000000E+00
  0.0000000E+00  0.0000000E+00  0.0000000E+00  0.0000000E+00  0.0000000E+00
  0.0000000E+00  0.0000000E+00  0.0000000E+00  0.0000000E+00  0.0000000E+00
  0.0000000E+00  0.0000000E+00  0.0000000E+00  0.0000000E+00  0.0000000E+00
  0.0000000E+00  0.0000000E+00  0.0000000E+00  0.0000000E+00  0.0000000E+00
  0.0000000E+00  0.0000000E+00  0.0000000E+00  0.0000000E+00  0.0000000E+00
  0.0000000E+00  0.0000000E+00  0.0000000E+00  0.0000000E+00  0.0000000E+00
  0.0000000E+00  0.0000000E+00  0.0000000E+00  0.0000000E+00  0.0000000E+00
  0.0000000E+00  0.0000000E+00  0.0000000E+00  0.0000000E+00  0.0000000E+00
  0.0000000E+00  0.0000000E+00  0.0000000E+00  0.0000000E+00  0.0000000E+00
  0.0000000E+00  0.0000000E+00  0.0000000E+00  0.0000000E+00  0.0000000E+00
  0.0000000E+00  0.0000000E+00  0.0000000E+00  0.0000000E+00  0.0000000E+00
  0.0000000E+00  0.0000000E+00  0.0000000E+00  0.0000000E+00  0.0000000E+00
  0.0000000E+00  0.0000000E+00  0.0000000E+00  0.0000000E+00  0.0000000E+00
  0.0000000E+00  0.0000000E+00  0.0000000E+00  0.0000000E+00  0.0000000E+00
  0.0000000E+00  0.0000000E+00  0.0000000E+00  0.0000000E+00  0.0000000E+00
  0.0000000E+00  0.0000000E+00  0.0000000E+00  0.0000000E+00  0.0000000E+00
   765.0000       768.0000       788.0000       791.0000       767.0000    
   760.0000       758.0000       760.0000       753.0000       748.0000    
   749.0000       742.0000       731.0000       740.0000       738.0000    
   737.0000       746.0000       744.0000       733.0000       736.0000    
   740.0000       734.0000       732.0000       726.0000       720.0000    
   730.0000       729.0000       732.0000      0.0000000E+00   729.0000    
   730.0000       751.0000       755.0000       745.0000       755.0000    
   762.0000       763.0000       763.0000       757.0000       750.0000    
   761.0000       735.0000       729.0000       748.0000       750.0000    
   748.0000       755.0000       742.0000       749.0000       747.0000    
   734.0000       712.0000       707.0000       701.0000       698.0000    
   700.0000       732.0000       728.0000       702.0000       695.0000    
   694.0000       691.0000       697.0000       712.0000       724.0000    
   731.0000       727.0000       712.0000       713.0000       701.0000    
   699.0000       708.0000       724.0000       723.0000       707.0000    
   702.0000       697.0000       698.0000       687.0000       685.0000    
[...]
  0.0000000E+00
           1          84          28   744.0221       744.0221    
  0.0000000E+00
           1          84           2   759.0444       759.0444    
  0.0000000E+00
           1          84          39   732.5451       732.5451    
  0.0000000E+00
           1          84          97   628.3455       628.3455    
  0.0000000E+00
           1          84         178   627.0000       627.0000    
  0.0000000E+00
           1          84          96   629.0113       629.0113    
  0.0000000E+00
           1          84          76   654.3783       654.3783    
  0.0000000E+00
           1          84          73   663.6890       663.6890    
  0.0000000E+00
           1          84         175   633.6520       633.6520    
  0.0000000E+00
           1          84         159   644.4222       644.4222    
  0.0000000E+00
           1          43           1   697.0000       697.0000    
  0.0000000E+00
           1          84          69   674.8220       674.8220    
  0.0000000E+00
           1          84         168   638.6452       638.6452    
  0.0000000E+00
           1          51           1   706.6678       706.6678    
  0.0000000E+00
           1          84         116   638.0000       638.0000    
  0.0000000E+00
           1          84         164   642.0098       642.0098    
  0.0000000E+00
           1          84          49   722.4378       722.4378    
  0.0000000E+00
           1          84          50   717.0000       717.0000    
  0.0000000E+00
           1          84         166   639.7430       639.7430    
  0.0000000E+00
           1          84          17   754.0000       754.0000    
  0.0000000E+00
           1          84         154   644.4647       644.4647    
  0.0000000E+00
           1          84          22   752.3878       752.3878    
  0.0000000E+00
           1          84         155   644.4561       644.4561    
  0.0000000E+00
           1          84         176   632.5764       632.5764    
  0.0000000E+00
           1          84          93   631.0291       631.0291    
  0.0000000E+00
           1          84         170   637.5557       637.5557    
  0.0000000E+00
           1          61           1   716.8892       716.8892    
  0.0000000E+00
           1          84         156   644.4476       644.4476    
  0.0000000E+00
           1          84          45   732.8217       732.8217    
  0.0000000E+00
           1          84         102   617.0000       617.0000    
  0.0000000E+00
           1          53           1   708.7213       708.7213    
  0.0000000E+00
           1          54           1   709.7327       709.7327    
  0.0000000E+00
           1          84          66   681.8812       681.8812    
  0.0000000E+00
           1          84          11   761.0000       761.0000    
  0.0000000E+00
           1          84          10   766.1824       766.1824    
  0.0000000E+00
           1          84         101   624.0000       624.0000    
  0.0000000E+00
           1          84           4   762.0000       762.0000    
  0.0000000E+00
           1          25           1   761.0595       761.0595    
  0.0000000E+00
           1          41           1   710.3573       710.3573    
  0.0000000E+00
           1          84         150   644.4985       644.4985    
  0.0000000E+00
           1          12           1   727.6169       727.6169    
  0.0000000E+00
           1          84          38   731.9091       731.9091    
  0.0000000E+00
 KPER:
          25
 DRN:
 ITMP:
          -1

 REUSING NON-PARAMETER DRAINS FROM LAST STRESS PERIOD
 RIV:
 ITMP:
          -1
 RCH:
 INRECH:
          -1
 CHD:
 ITMP:
         194
 LAYER,ROW,COL,START_FACTOR,END_FACTOR,CHDAUX:

           1          84          74   660.6650       660.6650    
  0.0000000E+00
           1          31           1   753.0542       753.0542    
  0.0000000E+00
           1          34           1   748.1075       748.1075    
  0.0000000E+00
           1          84          72   666.7118       666.7118    
  0.0000000E+00
           1          21           1   755.3963       755.3963    
  0.0000000E+00
           1          84         179   617.0000       617.0000    
  0.0000000E+00
           1          84          16   755.0000       755.0000    
  0.0000000E+00
           1          84         108   614.0000       614.0000    
  0.0000000E+00
           1          84          41   733.7839       733.7839    
  0.0000000E+00
           1          84          71   669.8720       669.8720    
  0.0000000E+00
           1          84         158   644.4307       644.4307    
  0.0000000E+00
           1          84          55   715.0370       715.0370    
  0.0000000E+00
           1          84         177   631.5009       631.5009    
  0.0000000E+00
           1          84          40   733.1806       733.1806    
  0.0000000E+00
           1          27           1   755.0000       755.0000    
  0.0000000E+00
           1          84          35   731.5200       731.5200    
  0.0000000E+00
           1          84          79   643.3990       643.3990    
  0.0000000E+00
           1          84         149   644.5070       644.5070    
  0.0000000E+00
           1          84         161   644.4053       644.4053    
  0.0000000E+00
           1          84         103   617.0000       617.0000    
  0.0000000E+00
           1          84          44   733.3957       733.3957    
  0.0000000E+00
           1          84         167   639.1941       639.1941    
  0.0000000E+00
           1          84          57   708.1105       708.1105    
  0.0000000E+00
           1          14           1   731.0000       731.0000    
  0.0000000E+00
           1          78           1   741.7180       741.7180    
  0.0000000E+00
           1          24           1   761.1358       761.1358    
  0.0000000E+00
           1          84          47   731.6288       731.6288    
  0.0000000E+00
           1          36           1   739.4414       739.4414    
  0.0000000E+00
           1          15           1   729.0000       729.0000    
  0.0000000E+00
           1          84          29   736.0000       736.0000    
  0.0000000E+00
           1          84          62   692.6834       692.6834    
  0.0000000E+00
           1          84          68   677.1561       677.1561    
  0.0000000E+00
           1          19           1   748.9194       748.9194    
  0.0000000E+00
           1          84         140   628.0000       628.0000    
  0.0000000E+00
           1          84          33   726.0000       726.0000    
  0.0000000E+00
           1          84           3   760.5215       760.5215    
  0.0000000E+00
           1          84         117   645.0000       645.0000    
  0.0000000E+00
           1          84          75   657.6375       657.6375    
  0.0000000E+00
           1          84         181   627.2305       627.2305    
  0.0000000E+00
           1          63           1   718.9273       718.9273    
  0.0000000E+00
           1          84          59   700.9431       700.9431    
  0.0000000E+00
           1          39           1   722.0000       722.0000    
  0.0000000E+00
           1          84          15   750.0000       750.0000    
  0.0000000E+00
           1          81           1   750.2682       750.2682    
  0.0000000E+00
           1          82           1   752.7726       752.7726    
  0.0000000E+00
           1          84          14   758.0000       758.0000    
  0.0000000E+00
           1          64           1   719.9540       719.9540    
  0.0000000E+00
           1          46           1   701.5648       701.5648    
  0.0000000E+00
           1          84          19   752.0000       752.0000    
  0.0000000E+00
           1          84          32   728.0000       728.0000    
  0.0000000E+00
           1          84         109   610.0000       610.0000    
  0.0000000E+00
           1          52           1   707.6945       707.6945    
  0.0000000E+00
           1          17           1   732.0000       732.0000    
  0.0000000E+00
           1          84         151   644.4901       644.4901    
  0.0000000E+00
           1          84         146   644.5324       644.5324    
  0.0000000E+00
           1          84          13   763.0000       763.0000    
  0.0000000E+00
           1          84          20   754.6692       754.6692    
  0.0000000E+00
           1          84          65   684.2084       684.2084    
  0.0000000E+00
           1          84           1   757.4161       757.4161    
  0.0000000E+00
           1          84           6   764.6206       764.6206    
  0.0000000E+00
           1          79           1   744.8405       744.8405    
  0.0000000E+00
           1          84         118   641.0000       641.0000    
  0.0000000E+00
           1          84         134   645.3094       645.3094    
  0.0000000E+00
           1          84         153   644.4730       644.4730    
  0.0000000E+00
           1          84         169   638.1046       638.1046    
  0.0000000E+00
           1          84          56   711.5288       711.5288    
  0.0000000E+00
           1          84         100   626.3278       626.3278    
  0.0000000E+00
           1          48           1   703.6029       703.6029    
  0.0000000E+00
           1          42           1   705.0000       705.0000    
  0.0000000E+00
           1          84           9   767.1862       767.1862    
  0.0000000E+00
           1          84         123   632.0000       632.0000    
  0.0000000E+00
           1          84           7   766.0560       766.0560    
  0.0000000E+00
           1          84         144   642.0000       642.0000    
  0.0000000E+00
           1          84         115   611.0000       611.0000    
  0.0000000E+00
           1          84          21   753.5370       753.5370    
  0.0000000E+00
           1          84          54   717.1066       717.1066    
  0.0000000E+00
           1          84         142   637.0000       637.0000    
  0.0000000E+00
           1          84         165   640.7262       640.7262    
  0.0000000E+00
           1          84         180   619.0000       619.0000    
  0.0000000E+00
           1          84         138   629.0000       629.0000    
  0.0000000E+00
           1          84          37   727.0000       727.0000    
  0.0000000E+00
           1          84          18   756.0000       756.0000    
  0.0000000E+00
           1          84          36   731.5200       731.5200    
  0.0000000E+00
           1          76           1   735.5198       735.5198    
  0.0000000E+00
           1          84         133   632.0000       632.0000    
  0.0000000E+00
           1          84         152   644.4816       644.4816    
  0.0000000E+00
           1          38           1   727.0000       727.0000    
  0.0000000E+00
           1          84          61   695.4401       695.4401    
  0.0000000E+00
           1          84         110   612.4591       612.4591    
  0.0000000E+00
           1          84         141   633.0000       633.0000    
  0.0000000E+00
           1          84          43   733.9730       733.9730    
  0.0000000E+00
           1          84          70   672.4409       672.4409    
  0.0000000E+00
           1          84          31   730.0000       730.0000    
  0.0000000E+00
           1          84          30   732.0000       732.0000    
  0.0000000E+00
           1          84           8   767.3065       767.3065    
  0.0000000E+00
           1          37           1   733.1966       733.1966    
  0.0000000E+00
           1          13           1   730.0000       730.0000    
  0.0000000E+00
           1          16           1   730.0000       730.0000    
  0.0000000E+00
           1          84          24   750.1063       750.1063    
  0.0000000E+00
           1          22           1   758.6591       758.6591    
  0.0000000E+00
           1          84         119   655.3200       655.3200    
  0.0000000E+00
           1          84          98   627.6696       627.6696    
  0.0000000E+00
           1          84         147   641.0000       641.0000    
  0.0000000E+00
           1          84          58   704.7995       704.7995    
  0.0000000E+00
           1          84          92   631.7050       631.7050    
  0.0000000E+00
           1          84         162   644.0399       644.0399    
  0.0000000E+00
           1          84         174   634.7115       634.7115    
  0.0000000E+00
           1          84          25   748.9570       748.9570    
  0.0000000E+00
           1          84          26   747.8077       747.8077    
  0.0000000E+00
           1          84           5   763.2067       763.2067    
  0.0000000E+00
           1          35           1   745.5931       745.5931    
  0.0000000E+00
           1          84          78   647.0195       647.0195    
  0.0000000E+00
           1          55           1   710.7594       710.7594    
  0.0000000E+00
           1          84          52   716.6194       716.6194    
  0.0000000E+00
           1          29           1   756.3438       756.3438    
  0.0000000E+00
           1          83           1   755.2396       755.2396    
  0.0000000E+00
           1          84          67   679.5187       679.5187    
  0.0000000E+00
           1          84         160   644.4138       644.4138    
  0.0000000E+00
           1          84          42   733.8900       733.8900    
  0.0000000E+00
           1          28           1   755.0000       755.0000    
  0.0000000E+00
           1          20           1   752.1335       752.1335    
  0.0000000E+00
           1          84          23   751.2385       751.2385    
  0.0000000E+00
           1          84          53   717.5146       717.5146    
  0.0000000E+00
           1          84          46   732.2253       732.2253    
  0.0000000E+00
           1          84          48   727.4888       727.4888    
  0.0000000E+00
           1          33           1   749.7646       749.7646    
  0.0000000E+00
           1          40           1   715.5331       715.5331    
  0.0000000E+00
           1          18           1   740.0000       740.0000    
  0.0000000E+00
           1          23           1   760.7753       760.7753    
  0.0000000E+00
           1          84         143   639.0000       639.0000    
  0.0000000E+00
           1          84          91   632.3809       632.3809    
  0.0000000E+00
           1          84         145   644.6472       644.6472    
  0.0000000E+00
           1          30           1   753.0000       753.0000    
  0.0000000E+00
           1          84          99   626.9936       626.9936    
  0.0000000E+00
           1          84         182   626.1550       626.1550    
  0.0000000E+00
           1          26           1   760.9127       760.9127    
  0.0000000E+00
           1          84          77   650.5860       650.5860    
  0.0000000E+00
           1          44           1   694.0000       694.0000    
  0.0000000E+00
           1          84          60   698.2123       698.2123    
  0.0000000E+00
           1          11           1   716.0000       716.0000    
  0.0000000E+00
           1          77           1   738.6422       738.6422    
  0.0000000E+00
           1          80           1   747.8314       747.8314    
  0.0000000E+00
           1          84         157   644.4392       644.4392    
  0.0000000E+00
           1          50           1   705.6564       705.6564    
  0.0000000E+00
           1          84          12   764.1403       764.1403    
  0.0000000E+00
           1          84         163   643.0324       643.0324    
  0.0000000E+00
           1          32           1   751.3970       751.3970    
  0.0000000E+00
           1          62           1   717.9159       717.9159    
  0.0000000E+00
           1          47           1   702.5915       702.5915    
  0.0000000E+00
           1          49           1   704.6296       704.6296    
  0.0000000E+00
           1          84         148   644.5155       644.5155    
  0.0000000E+00
           1          84          27   746.7600       746.7600    
  0.0000000E+00
           1          84          28   744.0221       744.0221    
  0.0000000E+00
           1          84           2   759.0444       759.0444    
  0.0000000E+00
           1          84          39   732.5451       732.5451    
  0.0000000E+00
           1          84          97   628.3455       628.3455    
  0.0000000E+00
           1          84         178   627.0000       627.0000    
  0.0000000E+00
           1          84          96   629.0113       629.0113    
  0.0000000E+00
           1          84          76   654.3783       654.3783    
  0.0000000E+00
           1          84          73   663.6890       663.6890    
  0.0000000E+00
           1          84         175   633.6520       633.6520    
  0.0000000E+00
           1          84         159   644.4222       644.4222    
  0.0000000E+00
           1          43           1   697.0000       697.0000    
  0.0000000E+00
           1          84          69   674.8220       674.8220    
  0.0000000E+00
           1          84         168   638.6452       638.6452    
  0.0000000E+00
           1          51           1   706.6678       706.6678    
  0.0000000E+00
           1          84         116   638.0000       638.0000    
  0.0000000E+00
           1          84         164   642.0098       642.0098    
  0.0000000E+00
           1          84          49   722.4378       722.4378    
  0.0000000E+00
           1          84          50   717.0000       717.0000    
  0.0000000E+00
           1          84         166   639.7430       639.7430    
  0.0000000E+00
           1          84          17   754.0000       754.0000    
  0.0000000E+00
           1          84         154   644.4647       644.4647    
  0.0000000E+00
           1          84          22   752.3878       752.3878    
  0.0000000E+00
           1          84         155   644.4561       644.4561    
  0.0000000E+00
           1          84         176   632.5764       632.5764    
  0.0000000E+00
           1          84          93   631.0291       631.0291    
  0.0000000E+00
           1          84         170   637.5557       637.5557    
  0.0000000E+00
           1          61           1   716.8892       716.8892    
  0.0000000E+00
           1          84         156   644.4476       644.4476    
  0.0000000E+00
           1          84          45   732.8217       732.8217    
  0.0000000E+00
           1          84         102   617.0000       617.0000    
  0.0000000E+00
           1          53           1   708.7213       708.7213    
  0.0000000E+00
           1          54           1   709.7327       709.7327    
  0.0000000E+00
           1          84          66   681.8812       681.8812    
  0.0000000E+00
           1          84          11   761.0000       761.0000    
  0.0000000E+00
           1          84          10   766.1824       766.1824    
  0.0000000E+00
           1          84         101   624.0000       624.0000    
  0.0000000E+00
           1          84           4   762.0000       762.0000    
  0.0000000E+00
           1          25           1   761.0595       761.0595    
  0.0000000E+00
           1          41           1   710.3573       710.3573    
  0.0000000E+00
           1          84         150   644.4985       644.4985    
  0.0000000E+00
           1          12           1   727.6169       727.6169    
  0.0000000E+00
           1          84          38   731.9091       731.9091    
  0.0000000E+00

 Run end date and time (yyyy/mm/dd hh:mm:ss): 2023/05/16 10:53:18
 Elapsed run time:  1 Minutes, 51.458 Seconds

